Bace1:1_D
  xed2sdf_05210316543D
 
 87 88  0  0  1  0  0  0  0  0999 V2000
   -0.5866  -12.6653   25.3446 C   0  0  0  0  0  0  0  0  0  0  0  0
    0.5504  -12.1963   24.4246 C   0  0  0  0  0  0  0  0  0  0  0  0
    0.5354  -10.6613   24.3276 C   0  0  0  0  0  0  0  0  0  0  0  0
    0.4064  -10.0343   25.7266 C   0  0  0  0  0  0  0  0  0  0  0  0
    1.6534   -9.3463   26.0846 N   0  0  0  0  0  0  0  0  0  0  0  0
    2.6894  -10.0423   26.5846 C   0  0  0  0  0  0  0  0  0  0  0  0
    2.7214  -11.2603   26.7026 O   0  0  0  0  0  0  0  0  0  0  0  0
    3.8314   -9.1423   27.0136 C   0  0  0  0  0  0  0  0  0  0  0  0
    5.1134   -9.9783   27.1636 C   0  0  0  0  0  0  0  0  0  0  0  0
    3.5574   -8.4103   28.3436 C   0  0  0  0  0  0  0  0  0  0  0  0
    3.1984   -6.9203   28.1466 C   0  0  0  0  0  0  0  0  0  0  0  0
    2.4824   -6.3263   29.3786 C   0  0  0  0  0  0  0  0  0  0  0  0
    2.1384   -7.4003   30.4406 C   0  0  0  0  0  0  0  0  0  0  0  0
    1.2714   -6.8563   31.6026 C   0  0  0  0  0  0  0  0  0  0  0  0
    0.6124   -8.0053   32.4046 C   0  0  0  0  0  0  0  0  0  0  0  0
   -0.8156   -7.6223   32.8536 C   0  0  0  0  0  0  0  0  0  0  0  0
   -1.8396   -7.8863   31.7256 C   0  0  0  0  0  0  0  0  0  0  0  0
   -3.0216   -6.8913   31.7596 C   0  0  0  0  0  0  0  0  0  0  0  0
   -2.6736   -5.6023   30.9836 C   0  0  0  0  0  0  0  0  0  0  0  0
   -3.6296   -4.4853   30.8156 N   0  0  0  0  0  0  0  0  0  0  0  0
   -3.5096   -3.5433   29.8386 C   0  0  0  0  0  0  0  0  0  0  0  0
   -4.3396   -2.6463   29.6986 O   0  0  0  0  0  0  0  0  0  0  0  0
   -2.3996   -3.4893   28.8366 C   0  0  0  0  0  0  0  0  0  0  0  0
   -1.1126   -3.9453   29.0736 C   0  0  0  0  0  0  0  0  0  0  0  0
   -0.1236   -3.8823   28.1116 C   0  0  0  0  0  0  0  0  0  0  0  0
   -0.4076   -3.3153   26.8816 C   0  0  0  0  0  0  0  0  0  0  0  0
   -1.6786   -2.8373   26.6116 C   0  0  0  0  0  0  0  0  0  0  0  0
   -2.6506   -2.9313   27.5896 C   0  0  0  0  0  0  0  0  0  0  0  0
   -2.0086   -2.2893   25.4326 O   0  0  0  0  0  0  0  0  0  0  0  0
   -1.7116   -3.0133   24.2216 C   0  0  0  0  0  0  0  0  0  0  0  0
   -3.0096   -3.3443   23.4686 C   0  0  0  0  0  0  0  0  0  0  0  0
    1.2054   -4.4513   28.4266 C   0  0  0  0  0  0  0  0  0  0  0  0
    2.1904   -3.7333   28.2746 O   0  0  0  0  0  0  0  0  0  0  0  0
    1.2414   -5.7263   28.8666 N   0  0  0  0  0  0  0  0  0  0  0  0
   -4.7396   -4.3783   31.7806 C   0  0  0  0  0  0  0  0  0  0  0  0
   -4.2256   -3.9513   33.1646 C   0  0  0  0  0  0  0  0  0  0  0  0
    2.1084   -5.9803   32.5566 C   0  0  0  0  0  0  0  0  0  0  0  0
    4.3724   -6.1433   27.8626 O   0  0  0  0  0  0  0  0  0  0  0  0
    3.9334   -8.4463   26.3026 H   0  0  0  0  0  0  0  0  0  0  0  0
    2.5714   -6.8803   27.3696 H   0  0  0  0  0  0  0  0  0  0  0  0
    3.0774   -5.6633   29.8326 H   0  0  0  0  0  0  0  0  0  0  0  0
    0.5514   -6.2983   31.1916 H   0  0  0  0  0  0  0  0  0  0  0  0
   -1.4606  -12.3703   24.9586 H   0  0  0  0  0  0  0  0  0  0  0  0
   -0.5716  -13.6623   25.4196 H   0  0  0  0  0  0  0  0  0  0  0  0
   -0.4686  -12.2683   26.2546 H   0  0  0  0  0  0  0  0  0  0  0  0
    0.4274  -12.5913   23.5136 H   0  0  0  0  0  0  0  0  0  0  0  0
    1.4264  -12.4953   24.8006 H   0  0  0  0  0  0  0  0  0  0  0  0
   -0.2386  -10.3733   23.7626 H   0  0  0  0  0  0  0  0  0  0  0  0
    1.3924  -10.3553   23.9146 H   0  0  0  0  0  0  0  0  0  0  0  0
    0.2174  -10.7523   26.3966 H   0  0  0  0  0  0  0  0  0  0  0  0
   -0.3426   -9.3723   25.7226 H   0  0  0  0  0  0  0  0  0  0  0  0
    1.7094   -8.4743   25.9756 H   0  0  0  0  0  0  0  0  0  0  0  0
    5.4754   -9.8563   28.0876 H   0  0  0  0  0  0  0  0  0  0  0  0
    4.9064  -10.9443   27.0086 H   0  0  0  0  0  0  0  0  0  0  0  0
    5.7914   -9.6783   26.4926 H   0  0  0  0  0  0  0  0  0  0  0  0
    4.3744   -8.4703   28.9176 H   0  0  0  0  0  0  0  0  0  0  0  0
    2.7704   -8.8533   28.7736 H   0  0  0  0  0  0  0  0  0  0  0  0
    2.9924   -7.7593   30.8196 H   0  0  0  0  0  0  0  0  0  0  0  0
    1.6054   -8.1113   29.9816 H   0  0  0  0  0  0  0  0  0  0  0  0
    1.1684   -8.2033   33.2116 H   0  0  0  0  0  0  0  0  0  0  0  0
    0.5524   -8.8103   31.8156 H   0  0  0  0  0  0  0  0  0  0  0  0
   -0.8346   -6.6523   33.0966 H   0  0  0  0  0  0  0  0  0  0  0  0
   -1.0626   -8.1833   33.6446 H   0  0  0  0  0  0  0  0  0  0  0  0
   -2.1956   -8.8153   31.8226 H   0  0  0  0  0  0  0  0  0  0  0  0
   -1.3676   -7.7673   30.8516 H   0  0  0  0  0  0  0  0  0  0  0  0
   -3.2296   -6.6593   32.7096 H   0  0  0  0  0  0  0  0  0  0  0  0
   -3.8146   -7.3203   31.3266 H   0  0  0  0  0  0  0  0  0  0  0  0
   -2.4196   -5.8933   30.0606 H   0  0  0  0  0  0  0  0  0  0  0  0
   -1.9846   -5.1883   31.5786 H   0  0  0  0  0  0  0  0  0  0  0  0
   -0.8936   -4.3313   29.9696 H   0  0  0  0  0  0  0  0  0  0  0  0
    0.3074   -3.2513   26.1856 H   0  0  0  0  0  0  0  0  0  0  0  0
   -3.5686   -2.5873   27.3916 H   0  0  0  0  0  0  0  0  0  0  0  0
   -1.2356   -3.8623   24.4516 H   0  0  0  0  0  0  0  0  0  0  0  0
   -1.1326   -2.4463   23.6366 H   0  0  0  0  0  0  0  0  0  0  0  0
   -3.7856   -2.9823   23.9846 H   0  0  0  0  0  0  0  0  0  0  0  0
   -2.9866   -2.9293   22.5596 H   0  0  0  0  0  0  0  0  0  0  0  0
   -3.0996   -4.3353   23.3726 H   0  0  0  0  0  0  0  0  0  0  0  0
    0.5054   -6.2113   28.8446 H   0  0  0  0  0  0  0  0  0  0  0  0
   -5.1956   -5.2653   31.8576 H   0  0  0  0  0  0  0  0  0  0  0  0
   -5.3826   -3.6863   31.4526 H   0  0  0  0  0  0  0  0  0  0  0  0
   -3.2336   -3.8333   33.1216 H   0  0  0  0  0  0  0  0  0  0  0  0
   -4.6556   -3.0893   33.4336 H   0  0  0  0  0  0  0  0  0  0  0  0
   -4.4536   -4.6533   33.8406 H   0  0  0  0  0  0  0  0  0  0  0  0
    2.0394   -6.3493   33.4826 H   0  0  0  0  0  0  0  0  0  0  0  0
    3.0654   -5.9813   32.2636 H   0  0  0  0  0  0  0  0  0  0  0  0
    1.7644   -5.0413   32.5396 H   0  0  0  0  0  0  0  0  0  0  0  0
    5.0484   -6.2163   28.6036 H   0  0  0  0  0  0  0  0  0  0  0  0
  1  2  1  0
  2  3  1  0
  3  4  1  0
  4  5  1  0
  5  6  1  0
  6  7  2  0
  6  8  1  0
  8  9  1  0
  8 10  1  0
 10 11  1  0
 11 12  1  0
 11 38  1  0
 12 13  1  0
 12 34  1  0
 13 14  1  0
 14 15  1  0
 14 37  1  0
 15 16  1  0
 16 17  1  0
 17 18  1  0
 18 19  1  0
 19 20  1  0
 20 21  1  0
 20 35  1  0
 21 22  2  0
 21 23  1  0
 23 24  2  0
 23 28  1  0
 24 25  1  0
 25 26  2  0
 25 32  1  0
 26 27  1  0
 27 28  2  0
 27 29  1  0
 29 30  1  0
 30 31  1  0
 32 33  2  0
 32 34  1  0
 35 36  1  0
  1 43  1  0
  1 44  1  0
  1 45  1  0
  2 46  1  0
  2 47  1  0
  3 48  1  0
  3 49  1  0
  4 50  1  0
  4 51  1  0
  5 52  1  0
  8 39  1  0
  9 53  1  0
  9 54  1  0
  9 55  1  0
 10 56  1  0
 10 57  1  0
 11 40  1  0
 12 41  1  0
 13 58  1  0
 13 59  1  0
 14 42  1  0
 15 60  1  0
 15 61  1  0
 16 62  1  0
 16 63  1  0
 17 64  1  0
 17 65  1  0
 18 66  1  0
 18 67  1  0
 19 68  1  0
 19 69  1  0
 24 70  1  0
 26 71  1  0
 28 72  1  0
 30 73  1  0
 30 74  1  0
 31 75  1  0
 31 76  1  0
 31 77  1  0
 34 78  1  0
 35 79  1  0
 35 80  1  0
 36 81  1  0
 36 82  1  0
 36 83  1  0
 37 84  1  0
 37 85  1  0
 37 86  1  0
 38 87  1  0
M  END
>  <LF dG>
-9.895

>  <LF VSscore>
-11.208

>  <LF Rank Score>
-10.027

>  <LF LE>
-0.26

>  <Favorite_cresset>
false

>  <Protein_cresset>
BACE_1_P

>  <MW_cresset>
531.7

>  <#Atoms_cresset>
38

>  <SlogP_cresset>
4.9

>  <TPSA_cresset>
108

>  <Flexibility_cresset>
16

>  <#RB_cresset>
11

>  <Rof5_cresset>
1

>  <Filename_cresset>
Bace1.smi

>  <Preferred Pose_cresset>
true

>  <_cresset_fieldpoints>
    -5       2.968377     -13.050299      26.768574     -9.7135
    -5       3.951377      -4.293298      27.500574    -13.3775
    -5       2.413377      -1.864298      27.932573    -10.1475
    -5      -2.334623       0.021702      25.886574     -5.8490
    -5      -4.425623      -0.791298      29.106573     -9.6165
    -6       5.419376      -6.815298      30.261574      8.9215
    -6      -2.491623      -5.968298      34.884575      4.1520
    -6      -5.425623      -7.012299      33.679573      4.0250
    -6      -1.049623      -7.363298      28.597574     10.6895
    -6      -0.278623      -4.006298      32.125572      4.4795
    -7      -2.772623     -10.113298      24.762573     -1.6620
    -7       3.860377     -11.460299      24.374573     -2.5775
    -7      -2.067623     -11.765299      22.399574     -1.4615
    -7      -1.368623      -7.515298      28.281574     -3.5080
    -7       3.187377      -8.545299      23.843575     -2.2825
    -7       6.369377      -6.979298      26.867573     -2.1615
    -7       3.817377      -8.766298      33.033573     -2.0260
    -7       5.377377      -6.772298      30.844574     -2.5575
    -7      -0.233623      -8.490298      28.428574     -4.1065
    -7      -0.834623     -10.958298      32.743572     -1.5705
    -7      -2.226623      -5.676298      34.984573     -2.2625
    -7      -4.858624      -5.948298      28.726574     -2.6105
    -7      -0.339623      -3.650298      32.341576     -3.3020
    -7       0.357377      -0.581298      25.065575     -1.6730
    -7      -0.538623      -0.530298      29.037573     -1.8690
    -7       1.730377      -3.167298      30.902573     -2.8255
    -7      -4.399623      -0.915298      25.503574     -1.8945
    -7       0.004377      -6.755298      26.494574     -3.7430
    -7      -5.042624      -1.551298      25.711575     -1.7385
    -7       4.627377      -3.889298      28.695574     -2.0570
    -7      -5.599624      -7.095298      33.735573     -1.7835
    -8       0.087377     -11.449299      25.067574      6.1825
    -8       4.144376      -9.226298      27.585573      5.6780
    -8      -0.036623      -7.429298      32.037575      6.0495
    -8       1.584377      -7.117298      31.810574      6.1390
    -8       2.840377      -7.553298      29.239574      5.9555
    -8      -1.879623      -7.034298      32.005573      5.9225
    -8       3.429377      -8.320298      27.724573      5.3710
    -8      -1.390623      -3.420298      27.875574      6.9895
    -8      -4.661623      -4.203299      32.739574      4.4105
    -8      -2.307623      -3.392298      23.514574      4.2970

$$$$
