Bace3:1_D
  xed2sdf_05210316543D
 
 86 87  0  0  1  0  0  0  0  0999 V2000
   -3.8402   -5.2139   31.6688 C   0  0  0  0  0  0  0  0  0  0  0  0
   -3.3612   -5.3919   30.3908 C   0  0  0  0  0  0  0  0  0  0  0  0
   -3.1782   -4.3069   29.5658 C   0  0  0  0  0  0  0  0  0  0  0  0
   -3.4732   -3.0339   30.0058 C   0  0  0  0  0  0  0  0  0  0  0  0
   -3.2592   -1.8569   29.0578 C   0  0  0  0  0  0  0  0  0  0  0  0
   -3.9162   -0.5619   29.5688 C   0  0  0  0  0  0  0  0  0  0  0  0
   -1.7912   -1.5379   28.7168 C   0  0  0  0  0  0  0  0  0  0  0  0
   -3.9532   -2.8699   31.2878 C   0  0  0  0  0  0  0  0  0  0  0  0
   -4.1372   -3.9469   32.1248 C   0  0  0  0  0  0  0  0  0  0  0  0
   -4.6512   -3.6519   33.5268 C   0  0  0  0  0  0  0  0  0  0  0  0
   -5.7372   -2.6089   33.6178 N   0  3  0  0  0  0  0  0  0  0  0  0
   -7.0622   -3.0189   33.0248 C   0  0  0  0  0  0  0  0  0  0  0  0
   -7.6402   -1.9349   32.0878 C   0  0  0  0  0  0  0  0  0  0  0  0
   -7.0672   -0.6629   32.4528 O   0  0  0  0  0  0  0  0  0  0  0  0
   -7.2612   -2.2209   30.7288 O   0  0  0  0  0  0  0  0  0  0  0  0
   -9.1882   -1.8889   32.1728 C   0  0  0  0  0  0  0  0  0  0  0  0
   -9.9082   -1.2469   31.0498 N   0  0  0  0  0  0  0  0  0  0  0  0
   -9.3452   -0.2729   30.3058 C   0  0  0  0  0  0  0  0  0  0  0  0
   -8.2242    0.1851   30.4718 O   0  0  0  0  0  0  0  0  0  0  0  0
  -10.2542    0.2271   29.1928 C   0  0  0  0  0  0  0  0  0  0  0  0
   -9.6162   -0.0979   27.8288 C   0  0  0  0  0  0  0  0  0  0  0  0
   -9.7632   -3.3059   32.4478 C   0  0  0  0  0  0  0  0  0  0  0  0
  -11.1362   -3.2999   33.1718 C   0  0  0  0  0  0  0  0  0  0  0  0
  -11.0942   -4.2999   34.3448 C   0  0  0  0  0  0  0  0  0  0  0  0
  -12.2862   -3.6849   32.2068 C   0  0  0  0  0  0  0  0  0  0  0  0
  -13.6792   -3.1589   32.6288 C   0  0  0  0  0  0  0  0  0  0  0  0
  -13.7212   -1.6169   32.7078 C   0  0  0  0  0  0  0  0  0  0  0  0
  -15.0542   -1.0309   32.1998 C   0  0  0  0  0  0  0  0  0  0  0  0
  -14.9552    0.5091   32.0858 C   0  0  0  0  0  0  0  0  0  0  0  0
  -14.6992    1.0051   30.6448 C   0  0  0  0  0  0  0  0  0  0  0  0
  -13.3562    0.5001   30.0858 C   0  0  0  0  0  0  0  0  0  0  0  0
  -12.9282    1.2371   28.8018 C   0  0  0  0  0  0  0  0  0  0  0  0
  -11.8052    2.2071   29.1108 C   0  0  0  0  0  0  0  0  0  0  0  0
  -12.0542    3.4031   29.1798 O   0  0  0  0  0  0  0  0  0  0  0  0
  -10.5732    1.6751   29.2928 N   0  0  0  0  0  0  0  0  0  0  0  0
   -9.4732    2.5981   29.6198 C   0  0  0  0  0  0  0  0  0  0  0  0
   -9.3592   -1.2739   32.9428 H   0  0  0  0  0  0  0  0  0  0  0  0
  -11.1282   -0.2499   29.2878 H   0  0  0  0  0  0  0  0  0  0  0  0
  -11.3122   -2.3759   33.5098 H   0  0  0  0  0  0  0  0  0  0  0  0
   -3.9722   -6.0039   32.2668 H   0  0  0  0  0  0  0  0  0  0  0  0
   -3.1472   -6.3119   30.0618 H   0  0  0  0  0  0  0  0  0  0  0  0
   -2.8272   -4.4419   28.6388 H   0  0  0  0  0  0  0  0  0  0  0  0
   -3.7022   -2.1749   28.2198 H   0  0  0  0  0  0  0  0  0  0  0  0
   -3.2372    0.1721   29.5578 H   0  0  0  0  0  0  0  0  0  0  0  0
   -4.6862   -0.3189   28.9798 H   0  0  0  0  0  0  0  0  0  0  0  0
   -4.2502   -0.6999   30.5018 H   0  0  0  0  0  0  0  0  0  0  0  0
   -1.6152   -0.5719   28.9078 H   0  0  0  0  0  0  0  0  0  0  0  0
   -1.1842   -2.1069   29.2718 H   0  0  0  0  0  0  0  0  0  0  0  0
   -1.6212   -1.7279   27.7498 H   0  0  0  0  0  0  0  0  0  0  0  0
   -4.1712   -1.9499   31.6158 H   0  0  0  0  0  0  0  0  0  0  0  0
   -3.8772   -3.3429   34.0808 H   0  0  0  0  0  0  0  0  0  0  0  0
   -5.0632   -4.5029   33.8518 H   0  0  0  0  0  0  0  0  0  0  0  0
   -5.8572   -2.3979   34.4958 H   0  0  0  0  0  0  0  0  0  0  0  0
   -5.4622   -1.8309   33.2338 H   0  0  0  0  0  0  0  0  0  0  0  0
   -7.7112   -3.1869   33.7668 H   0  0  0  0  0  0  0  0  0  0  0  0
   -6.9142   -3.8449   32.4818 H   0  0  0  0  0  0  0  0  0  0  0  0
   -7.1522   -0.4969   33.4408 H   0  0  0  0  0  0  0  0  0  0  0  0
   -6.6242   -1.5279   30.3768 H   0  0  0  0  0  0  0  0  0  0  0  0
  -10.7302   -1.5019   30.8868 H   0  0  0  0  0  0  0  0  0  0  0  0
   -9.5502    0.7431   27.2918 H   0  0  0  0  0  0  0  0  0  0  0  0
   -8.7032   -0.4819   27.9658 H   0  0  0  0  0  0  0  0  0  0  0  0
  -10.1812   -0.7649   27.3438 H   0  0  0  0  0  0  0  0  0  0  0  0
   -9.1092   -3.8079   33.0128 H   0  0  0  0  0  0  0  0  0  0  0  0
   -9.9092   -3.7359   31.5568 H   0  0  0  0  0  0  0  0  0  0  0  0
  -11.8192   -4.9769   34.2218 H   0  0  0  0  0  0  0  0  0  0  0  0
  -10.2052   -4.7589   34.3648 H   0  0  0  0  0  0  0  0  0  0  0  0
  -11.2282   -3.8129   35.2078 H   0  0  0  0  0  0  0  0  0  0  0  0
  -12.3292   -4.6819   32.1508 H   0  0  0  0  0  0  0  0  0  0  0  0
  -12.0752   -3.2559   31.3278 H   0  0  0  0  0  0  0  0  0  0  0  0
  -13.9092   -3.5369   33.5258 H   0  0  0  0  0  0  0  0  0  0  0  0
  -14.3392   -3.4479   31.9348 H   0  0  0  0  0  0  0  0  0  0  0  0
  -12.9752   -1.2459   32.1558 H   0  0  0  0  0  0  0  0  0  0  0  0
  -13.6282   -1.3619   33.6708 H   0  0  0  0  0  0  0  0  0  0  0  0
  -15.7862   -1.2699   32.8378 H   0  0  0  0  0  0  0  0  0  0  0  0
  -15.2532   -1.4109   31.2968 H   0  0  0  0  0  0  0  0  0  0  0  0
  -14.2062    0.8231   32.6688 H   0  0  0  0  0  0  0  0  0  0  0  0
  -15.8372    0.8821   32.3718 H   0  0  0  0  0  0  0  0  0  0  0  0
  -14.6962    2.0051   30.6428 H   0  0  0  0  0  0  0  0  0  0  0  0
  -15.4282    0.6451   30.0618 H   0  0  0  0  0  0  0  0  0  0  0  0
  -13.4392   -0.4759   29.8848 H   0  0  0  0  0  0  0  0  0  0  0  0
  -12.6572    0.6761   30.7788 H   0  0  0  0  0  0  0  0  0  0  0  0
  -13.7092    1.7391   28.4298 H   0  0  0  0  0  0  0  0  0  0  0  0
  -12.6082    0.5691   28.1308 H   0  0  0  0  0  0  0  0  0  0  0  0
   -9.8312    3.5311   29.6578 H   0  0  0  0  0  0  0  0  0  0  0  0
   -9.0772    2.3521   30.5048 H   0  0  0  0  0  0  0  0  0  0  0  0
   -8.7632    2.5371   28.9178 H   0  0  0  0  0  0  0  0  0  0  0  0
  1  2  2  0
  1  9  1  0
  2  3  1  0
  3  4  2  0
  4  5  1  0
  4  8  1  0
  5  6  1  0
  5  7  1  0
  8  9  2  0
  9 10  1  0
 10 11  1  0
 11 12  1  0
 12 13  1  0
 13 14  1  0
 13 15  1  0
 13 16  1  0
 16 17  1  0
 16 22  1  0
 17 18  1  0
 18 19  2  0
 18 20  1  0
 20 21  1  0
 20 35  1  0
 22 23  1  0
 23 24  1  0
 23 25  1  0
 25 26  1  0
 26 27  1  0
 27 28  1  0
 28 29  1  0
 29 30  1  0
 30 31  1  0
 31 32  1  0
 32 33  1  0
 33 34  2  0
 33 35  1  0
 35 36  1  0
  1 40  1  0
  2 41  1  0
  3 42  1  0
  5 43  1  0
  6 44  1  0
  6 45  1  0
  6 46  1  0
  7 47  1  0
  7 48  1  0
  7 49  1  0
  8 50  1  0
 10 51  1  0
 10 52  1  0
 11 53  1  0
 11 54  1  0
 12 55  1  0
 12 56  1  0
 14 57  1  0
 15 58  1  0
 16 37  1  0
 17 59  1  0
 20 38  1  0
 21 60  1  0
 21 61  1  0
 21 62  1  0
 22 63  1  0
 22 64  1  0
 23 39  1  0
 24 65  1  0
 24 66  1  0
 24 67  1  0
 25 68  1  0
 25 69  1  0
 26 70  1  0
 26 71  1  0
 27 72  1  0
 27 73  1  0
 28 74  1  0
 28 75  1  0
 29 76  1  0
 29 77  1  0
 30 78  1  0
 30 79  1  0
 31 80  1  0
 31 81  1  0
 32 82  1  0
 32 83  1  0
 36 84  1  0
 36 85  1  0
 36 86  1  0
M  CHG  1  11   1
M  END
>  <LF dG>
-9.075

>  <LF VSscore>
-12.046

>  <LF Rank Score>
-11.546

>  <LF LE>
-0.252

>  <Favorite_cresset>
false

>  <Protein_cresset>
BACE_3_P

>  <MW_cresset>
504.7

>  <#Atoms_cresset>
36

>  <SlogP_cresset>
4.8

>  <TPSA_cresset>
106.5

>  <Flexibility_cresset>
16

>  <#RB_cresset>
8

>  <Rof5_cresset>
1

>  <Filename_cresset>
Bace3.smi

>  <Preferred Pose_cresset>
true

>  <_cresset_fieldpoints>
    -5      -0.924182      -3.640892      31.612799     -3.8480
    -5      -6.686182      -3.827891      29.967798     -9.8810
    -5     -11.655182       5.142108      29.413797    -10.1155
    -5      -6.788182       0.814108      31.359798    -11.1420
    -5     -13.519182       4.376109      29.060799    -10.5685
    -5      -8.327183      -2.999891      29.508799     -8.9060
    -6      -2.269182      -6.938891      27.914799      2.8595
    -6      -2.239182      -3.989892      26.541798      2.9530
    -6     -12.039183      -2.214891      29.337797     10.2465
    -6      -7.702182      -1.006891      35.079800     11.1985
    -6     -13.770182      -6.312891      33.506798      3.6865
    -7      -6.872182      -6.301891      32.850800     -2.2615
    -7      -6.763182      -4.300891      29.867798     -3.5775
    -7      -0.619182      -3.249891      31.684797     -2.3625
    -7      -7.877182      -5.999891      33.673798     -2.3280
    -7      -6.497182      -2.689891      28.553799     -3.2760
    -7      -2.748182      -3.693892      26.260798     -1.7915
    -7      -0.358182      -4.347891      27.901798     -1.6320
    -7      -3.550182      -0.062891      26.319798     -1.5445
    -7      -8.567183       1.257109      32.742798     -2.7720
    -7      -6.722182       1.010109      28.960798     -2.7455
    -7      -6.240182       1.020109      31.086798     -2.9170
    -7      -1.583182      -0.741891      31.915798     -2.3770
    -7      -9.103182      -1.896891      35.492798     -2.7285
    -7      -5.031182       0.456109      32.566799     -2.5960
    -7     -12.156182      -2.489892      28.985798     -3.4105
    -7     -10.723183       2.908109      26.543798     -2.0870
    -7     -13.358183      -2.500891      35.933800     -2.1180
    -7     -10.239182      -6.451891      32.025799     -2.0440
    -7     -13.727182      -2.805892      29.342798     -2.8390
    -7     -16.791183      -3.682891      33.261799     -1.4775
    -7     -13.964182      -6.279891      33.594799     -1.6565
    -7     -15.494183      -2.322891      35.362797     -1.6590
    -7      -8.933183      -3.038891      29.163797     -3.3995
    -7     -15.164183      -0.003891      35.338799     -1.6015
    -7     -17.802181      -0.440891      30.576797     -1.5730
    -7     -14.261183       4.226109      29.463799     -1.8140
    -7     -11.193182       0.544109      32.681797     -4.3075
    -8      -3.656182      -4.120892      30.839798      7.2250
    -8      -8.528182      -2.796891      32.690800      5.5815
    -8     -11.076182      -3.739892      33.002800      6.1575
    -8      -3.106182      -1.690892      29.462797      6.0465
    -8      -3.655182      -1.905891      30.022799      6.0780
    -8      -3.441182      -2.912891      29.938799      5.8260
    -8     -12.656182      -2.798892      32.727798      6.1055
    -8     -14.381182       0.032109      31.278797      6.1675
    -8      -9.800182      -0.329891      28.683798      4.4985
    -8     -13.742182       0.988109      29.820799      5.6910
    -8     -14.219183      -1.992891      32.425797      5.7830
    -8     -14.349182      -0.532891      32.072800      5.9455
    -8      -8.841183       3.128109      29.779799      2.5480

$$$$
