Bace4:1_D
  xed2sdf_05210316543D
 
 90 92  0  0  1  0  0  0  0  0999 V2000
   -4.3863   -7.7362   32.4303 C   0  0  0  0  0  0  0  0  0  0  0  0
   -3.3143   -6.6602   32.6973 C   0  0  0  0  0  0  0  0  0  0  0  0
   -2.2263   -7.1972   33.6593 C   0  0  0  0  0  0  0  0  0  0  0  0
   -1.4023   -8.3902   33.1253 C   0  0  0  0  0  0  0  0  0  0  0  0
   -0.8043   -8.0922   31.7393 C   0  0  0  0  0  0  0  0  0  0  0  0
    0.3797   -9.0272   31.4303 C   0  0  0  0  0  0  0  0  0  0  0  0
    0.7487   -9.0062   29.9313 C   0  0  0  0  0  0  0  0  0  0  0  0
    1.3697   -7.6722   29.4683 C   0  0  0  0  0  0  0  0  0  0  0  0
    0.4617   -6.5772   29.6723 O   0  0  0  0  0  0  0  0  0  0  0  0
    0.8717   -5.3842   28.9843 C   0  0  0  0  0  0  0  0  0  0  0  0
    0.0737   -4.1962   29.4783 C   0  0  0  0  0  0  0  0  0  0  0  0
    0.6247   -3.3122   30.1203 O   0  0  0  0  0  0  0  0  0  0  0  0
   -1.2383   -4.2062   29.1563 N   0  0  0  0  0  0  0  0  0  0  0  0
   -2.0953   -3.0902   29.6003 C   0  0  0  0  0  0  0  0  0  0  0  0
   -3.4063   -3.5602   30.2003 C   0  0  0  0  0  0  0  0  0  0  0  0
   -4.4433   -3.6432   29.5553 O   0  0  0  0  0  0  0  0  0  0  0  0
   -3.2903   -3.8672   31.5023 N   0  0  0  0  0  0  0  0  0  0  0  0
   -4.4523   -4.4002   32.2333 C   0  0  0  0  0  0  0  0  0  0  0  0
   -3.9703   -5.4002   33.3083 C   0  0  0  0  0  0  0  0  0  0  0  0
   -5.2933   -3.3142   32.9393 C   0  0  0  0  0  0  0  0  0  0  0  0
   -6.0413   -2.4332   31.9133 C   0  0  0  0  0  0  0  0  0  0  0  0
   -5.8393   -0.9472   32.1103 N   0  3  0  0  0  0  0  0  0  0  0  0
   -7.0243   -0.0032   32.0763 C   0  0  0  0  0  0  0  0  0  0  0  0
   -6.8183    1.5218   31.9633 C   0  0  0  0  0  0  0  0  0  0  0  0
   -7.1503    0.8948   33.3243 C   0  0  0  0  0  0  0  0  0  0  0  0
   -8.3313   -0.6092   31.5793 C   0  0  0  0  0  0  0  0  0  0  0  0
   -8.7943   -0.3422   30.3093 C   0  0  0  0  0  0  0  0  0  0  0  0
   -9.9773   -0.8912   29.8753 C   0  0  0  0  0  0  0  0  0  0  0  0
  -10.7033   -1.7072   30.7113 C   0  0  0  0  0  0  0  0  0  0  0  0
  -10.2613   -1.9862   31.9893 C   0  0  0  0  0  0  0  0  0  0  0  0
   -9.0713   -1.4252   32.4073 C   0  0  0  0  0  0  0  0  0  0  0  0
  -11.0853   -2.8962   32.9073 C   0  0  0  0  0  0  0  0  0  0  0  0
  -10.4203   -4.2542   33.2073 C   0  0  0  0  0  0  0  0  0  0  0  0
  -12.4573   -3.2142   32.2833 C   0  0  0  0  0  0  0  0  0  0  0  0
  -11.3343   -2.2212   34.2693 C   0  0  0  0  0  0  0  0  0  0  0  0
   -6.2343   -3.9512   33.8183 O   0  0  0  0  0  0  0  0  0  0  0  0
   -2.3453   -2.1212   28.4313 C   0  0  0  0  0  0  0  0  0  0  0  0
   -1.8543   -5.2752   28.3433 C   0  0  0  0  0  0  0  0  0  0  0  0
   -2.8843   -6.4242   31.8263 H   0  0  0  0  0  0  0  0  0  0  0  0
   -1.6053   -2.6122   30.3293 H   0  0  0  0  0  0  0  0  0  0  0  0
   -5.0353   -4.8362   31.5483 H   0  0  0  0  0  0  0  0  0  0  0  0
   -4.6813   -2.7212   33.4623 H   0  0  0  0  0  0  0  0  0  0  0  0
   -4.6073   -7.7402   31.4543 H   0  0  0  0  0  0  0  0  0  0  0  0
   -4.0393   -8.6342   32.7003 H   0  0  0  0  0  0  0  0  0  0  0  0
   -5.2083   -7.5312   32.9613 H   0  0  0  0  0  0  0  0  0  0  0  0
   -2.6753   -7.4832   34.5063 H   0  0  0  0  0  0  0  0  0  0  0  0
   -1.5763   -6.4482   33.7853 H   0  0  0  0  0  0  0  0  0  0  0  0
   -1.9953   -9.1922   33.0593 H   0  0  0  0  0  0  0  0  0  0  0  0
   -0.6473   -8.5572   33.7603 H   0  0  0  0  0  0  0  0  0  0  0  0
   -0.4883   -7.1432   31.7163 H   0  0  0  0  0  0  0  0  0  0  0  0
   -1.5123   -8.2422   31.0503 H   0  0  0  0  0  0  0  0  0  0  0  0
    0.1347   -9.9602   31.6923 H   0  0  0  0  0  0  0  0  0  0  0  0
    1.1727   -8.7082   31.9493 H   0  0  0  0  0  0  0  0  0  0  0  0
   -0.0803   -9.1742   29.3973 H   0  0  0  0  0  0  0  0  0  0  0  0
    1.4387   -9.7152   29.7893 H   0  0  0  0  0  0  0  0  0  0  0  0
    1.5947   -7.7362   28.4963 H   0  0  0  0  0  0  0  0  0  0  0  0
    2.1947   -7.5032   30.0083 H   0  0  0  0  0  0  0  0  0  0  0  0
    0.7237   -5.5002   28.0013 H   0  0  0  0  0  0  0  0  0  0  0  0
    1.8427   -5.2222   29.1623 H   0  0  0  0  0  0  0  0  0  0  0  0
   -2.5243   -3.7582   31.9233 H   0  0  0  0  0  0  0  0  0  0  0  0
   -3.3023   -4.9442   33.8973 H   0  0  0  0  0  0  0  0  0  0  0  0
   -4.7723   -5.6972   33.8253 H   0  0  0  0  0  0  0  0  0  0  0  0
   -7.0193   -2.6312   31.9813 H   0  0  0  0  0  0  0  0  0  0  0  0
   -5.6653   -2.6562   31.0133 H   0  0  0  0  0  0  0  0  0  0  0  0
   -5.1923   -0.6402   31.5503 H   0  0  0  0  0  0  0  0  0  0  0  0
   -5.4473   -0.8412   32.9273 H   0  0  0  0  0  0  0  0  0  0  0  0
   -7.4953    2.0868   31.4903 H   0  0  0  0  0  0  0  0  0  0  0  0
   -6.0893    2.1128   31.6173 H   0  0  0  0  0  0  0  0  0  0  0  0
   -6.4563    0.8558   34.0433 H   0  0  0  0  0  0  0  0  0  0  0  0
   -7.8553    1.0448   34.0173 H   0  0  0  0  0  0  0  0  0  0  0  0
   -8.2673    0.2528   29.7013 H   0  0  0  0  0  0  0  0  0  0  0  0
  -10.3103   -0.6972   28.9523 H   0  0  0  0  0  0  0  0  0  0  0  0
  -11.5623   -2.1042   30.3893 H   0  0  0  0  0  0  0  0  0  0  0  0
   -8.7383   -1.6152   33.3313 H   0  0  0  0  0  0  0  0  0  0  0  0
  -10.3183   -4.3552   34.1973 H   0  0  0  0  0  0  0  0  0  0  0  0
  -10.9883   -4.9952   32.8503 H   0  0  0  0  0  0  0  0  0  0  0  0
   -9.5213   -4.2932   32.7703 H   0  0  0  0  0  0  0  0  0  0  0  0
  -13.1773   -2.9082   32.9063 H   0  0  0  0  0  0  0  0  0  0  0  0
  -12.5473   -2.7402   31.4073 H   0  0  0  0  0  0  0  0  0  0  0  0
  -12.5373   -4.1992   32.1303 H   0  0  0  0  0  0  0  0  0  0  0  0
  -12.3193   -2.1512   34.4223 H   0  0  0  0  0  0  0  0  0  0  0  0
  -10.9183   -2.7662   34.9973 H   0  0  0  0  0  0  0  0  0  0  0  0
  -10.9263   -1.3082   34.2723 H   0  0  0  0  0  0  0  0  0  0  0  0
   -5.8293   -4.1532   34.7153 H   0  0  0  0  0  0  0  0  0  0  0  0
   -3.3303   -2.0022   28.3113 H   0  0  0  0  0  0  0  0  0  0  0  0
   -1.9213   -1.2372   28.6283 H   0  0  0  0  0  0  0  0  0  0  0  0
   -1.9453   -2.4932   27.5933 H   0  0  0  0  0  0  0  0  0  0  0  0
   -2.8233   -5.0642   28.2093 H   0  0  0  0  0  0  0  0  0  0  0  0
   -1.3963   -5.3312   27.4563 H   0  0  0  0  0  0  0  0  0  0  0  0
   -1.7613   -6.1522   28.8143 H   0  0  0  0  0  0  0  0  0  0  0  0
  1  2  1  0
  2  3  1  0
  2 19  1  0
  3  4  1  0
  4  5  1  0
  5  6  1  0
  6  7  1  0
  7  8  1  0
  8  9  1  0
  9 10  1  0
 10 11  1  0
 11 12  2  0
 11 13  1  0
 13 14  1  0
 13 38  1  0
 14 15  1  0
 14 37  1  0
 15 16  2  0
 15 17  1  0
 17 18  1  0
 18 19  1  0
 18 20  1  0
 20 21  1  0
 20 36  1  0
 21 22  1  0
 22 23  1  0
 23 24  1  0
 23 25  1  0
 23 26  1  0
 24 25  1  0
 26 27  2  0
 26 31  1  0
 27 28  1  0
 28 29  2  0
 29 30  1  0
 30 31  2  0
 30 32  1  0
 32 33  1  0
 32 34  1  0
 32 35  1  0
  1 43  1  0
  1 44  1  0
  1 45  1  0
  2 39  1  0
  3 46  1  0
  3 47  1  0
  4 48  1  0
  4 49  1  0
  5 50  1  0
  5 51  1  0
  6 52  1  0
  6 53  1  0
  7 54  1  0
  7 55  1  0
  8 56  1  0
  8 57  1  0
 10 58  1  0
 10 59  1  0
 14 40  1  0
 17 60  1  0
 18 41  1  0
 19 61  1  0
 19 62  1  0
 20 42  1  0
 21 63  1  0
 21 64  1  0
 22 65  1  0
 22 66  1  0
 24 67  1  0
 24 68  1  0
 25 69  1  0
 25 70  1  0
 27 71  1  0
 28 72  1  0
 29 73  1  0
 31 74  1  0
 33 75  1  0
 33 76  1  0
 33 77  1  0
 34 78  1  0
 34 79  1  0
 34 80  1  0
 35 81  1  0
 35 82  1  0
 35 83  1  0
 36 84  1  0
 37 85  1  0
 37 86  1  0
 37 87  1  0
 38 88  1  0
 38 89  1  0
 38 90  1  0
M  CHG  1  22   1
M  END
>  <LF dG>
-11.229

>  <LF VSscore>
-14.049

>  <LF Rank Score>
-12.539

>  <LF LE>
-0.295

>  <Favorite_cresset>
false

>  <Protein_cresset>
BACE_4_P

>  <MW_cresset>
530.8

>  <#Atoms_cresset>
38

>  <SlogP_cresset>
4.6

>  <TPSA_cresset>
95.5

>  <Flexibility_cresset>
13

>  <#RB_cresset>
7

>  <Rof5_cresset>
1

>  <Filename_cresset>
Bace4.smi

>  <Preferred Pose_cresset>
true

>  <_cresset_fieldpoints>
    -5      -7.428264      -5.078156      32.929333     -7.7645
    -5      -6.176264      -4.248155      29.380333     -9.6885
    -5       2.267736      -3.050155      30.751333     -7.7215
    -5      -8.213264      -3.623155      30.109333     -7.5195
    -5     -10.987264       0.988845      32.302334     -4.9885
    -6      -4.506264      -3.731155      35.809334      9.7780
    -6       0.402736      -7.032155      26.378334      5.5745
    -6      -4.868264      -1.093155      35.084335      6.9235
    -6       2.553736      -6.422155      26.778334      5.6345
    -6      -2.152264      -2.888155      33.871334      7.2930
    -6       1.015736     -10.552155      34.162334      2.1455
    -6      -3.008264      -0.502155      31.119333      5.0835
    -6     -13.272264      -2.302155      28.972334      2.2210
    -6     -13.068264      -4.773155      35.185333      1.7365
    -7      -7.370264      -5.777155      32.687332     -3.3120
    -7      -3.215264      -8.160155      29.315334     -2.6700
    -7      -3.856264      -9.765156      35.052334     -1.7780
    -7      -4.754264      -6.163156      29.460333     -3.1500
    -7      -0.382264      -4.759155      32.224335     -3.9670
    -7      -5.000264      -7.540155      35.685333     -1.9590
    -7      -0.160264     -11.262156      33.938332     -1.4300
    -7       3.745737      -9.246155      31.373333     -1.4850
    -7      -2.952264     -10.313155      30.776333     -2.3435
    -7      -0.686264      -7.964155      27.022333     -2.1650
    -7       3.680736      -6.353155      27.505333     -1.2320
    -7       0.252736      -3.260155      26.569334     -2.1225
    -7      -2.862264      -1.195155      32.193333     -3.3245
    -7      -4.926264      -3.881155      27.293333     -1.9645
    -7      -7.193264      -1.961155      35.062332     -3.4330
    -7      -4.021264      -3.497155      35.971333     -1.7230
    -7      -3.707264       0.945845      32.937332     -1.9650
    -7      -5.644264      -1.008155      29.063334     -3.2735
    -7     -10.496264      -4.894156      30.047333     -2.3430
    -7      -8.278264      -4.202155      30.409334     -3.3400
    -7     -13.062263      -4.905155      35.020332     -1.9345
    -7     -10.619264       1.304845      33.124332     -2.8255
    -7      -7.973264      -3.002155      35.037334     -3.5230
    -8      -2.076264      -7.562155      32.663334      6.1990
    -8      -3.510264      -6.804155      33.110332      6.1615
    -8      -0.580264      -8.591155      32.182335      5.7680
    -8       0.058736      -8.644156      30.949333      5.6555
    -8       1.629736      -6.505156      28.875334      2.6500
    -8      -0.367264      -5.189155      28.398335      2.9315
    -8      -2.539264      -2.410155      29.252335      4.3815
    -8       0.797736      -4.760155      28.477333      2.8730
    -8      -5.304264      -3.406155      32.022335      4.4580
    -8      -9.521263      -1.167155      31.154333      7.2700
    -8     -11.173264      -2.967155      32.993332      6.5030
    -8      -7.648264       0.566845      32.189335      5.7740
    -8     -11.269264      -2.552155      31.982334      6.2620
    -8      -2.156264      -5.864155      27.885334      2.6375

$$$$
