Bace5:1_D
  xed2sdf_05210316543D
 
 80 81  0  0  1  0  0  0  0  0999 V2000
  -12.9636   -4.5294   31.8749 C   0  0  0  0  0  0  0  0  0  0  0  0
  -12.5966   -3.1314   32.3999 C   0  0  0  0  0  0  0  0  0  0  0  0
  -11.5916   -2.4304   31.4639 C   0  0  0  0  0  0  0  0  0  0  0  0
  -10.1596   -2.3224   31.9619 C   0  0  0  0  0  0  0  0  0  0  0  0
   -9.3616   -1.2514   31.8849 C   0  0  0  0  0  0  0  0  0  0  0  0
   -8.1576   -1.6584   32.4649 C   0  0  0  0  0  0  0  0  0  0  0  0
   -8.2876   -2.9044   32.8439 N   0  0  0  0  0  0  0  0  0  0  0  0
   -9.5276   -3.3684   32.5499 N   0  0  0  0  0  0  0  0  0  0  0  0
   -6.8836   -0.8584   32.6579 C   0  0  0  0  0  0  0  0  0  0  0  0
   -5.7316   -1.7554   33.0229 N   0  3  0  0  0  0  0  0  0  0  0  0
   -5.2456   -2.6264   31.8949 C   0  0  0  0  0  0  0  0  0  0  0  0
   -3.8576   -3.2014   32.2409 C   0  0  0  0  0  0  0  0  0  0  0  0
   -3.3736   -4.3724   31.3429 C   0  0  0  0  0  0  0  0  0  0  0  0
   -3.5326   -4.0914   29.8209 C   0  0  0  0  0  0  0  0  0  0  0  0
   -2.4606   -3.1934   29.1379 C   0  0  0  0  0  0  0  0  0  0  0  0
   -1.2216   -3.9954   28.6749 C   0  0  0  0  0  0  0  0  0  0  0  0
    0.0534   -3.1094   28.6029 C   0  0  0  0  0  0  0  0  0  0  0  0
    1.2554   -3.7564   27.8549 C   0  0  0  0  0  0  0  0  0  0  0  0
    2.5454   -3.9214   28.7129 C   0  0  0  0  0  0  0  0  0  0  0  0
    2.7154   -5.2784   29.4449 C   0  0  0  0  0  0  0  0  0  0  0  0
    1.3854   -5.6424   30.1089 C   0  0  0  0  0  0  0  0  0  0  0  0
    1.3094   -6.7584   31.0119 O   0  0  0  0  0  0  0  0  0  0  0  0
   -0.0836   -7.0634   31.2009 C   0  0  0  0  0  0  0  0  0  0  0  0
   -0.5546   -7.7714   32.4429 C   0  0  0  0  0  0  0  0  0  0  0  0
    0.2344   -8.2904   33.2209 O   0  0  0  0  0  0  0  0  0  0  0  0
   -1.8976   -7.7184   32.6129 N   0  0  0  0  0  0  0  0  0  0  0  0
   -2.8486   -7.2794   31.5509 C   0  0  0  0  0  0  0  0  0  0  0  0
   -4.1566   -6.6804   32.0409 C   0  0  0  0  0  0  0  0  0  0  0  0
   -4.9896   -7.3824   32.5969 O   0  0  0  0  0  0  0  0  0  0  0  0
   -4.3856   -5.3784   31.7589 N   0  0  0  0  0  0  0  0  0  0  0  0
   -3.2156   -8.5524   30.7589 C   0  0  0  0  0  0  0  0  0  0  0  0
   -2.4536   -8.1674   33.8999 C   0  0  0  0  0  0  0  0  0  0  0  0
   -3.1266   -2.5244   27.9169 C   0  0  0  0  0  0  0  0  0  0  0  0
   -3.8126   -3.5594   33.6309 O   0  0  0  0  0  0  0  0  0  0  0  0
   -3.2076   -2.4664   32.0489 H   0  0  0  0  0  0  0  0  0  0  0  0
   -2.4066   -4.6004   31.4479 H   0  0  0  0  0  0  0  0  0  0  0  0
   -2.1366   -2.5194   29.8009 H   0  0  0  0  0  0  0  0  0  0  0  0
   -2.3906   -6.5574   31.0319 H   0  0  0  0  0  0  0  0  0  0  0  0
  -12.5136   -4.6744   30.9929 H   0  0  0  0  0  0  0  0  0  0  0  0
  -12.6616   -5.2254   32.5259 H   0  0  0  0  0  0  0  0  0  0  0  0
  -13.9556   -4.5974   31.7629 H   0  0  0  0  0  0  0  0  0  0  0  0
  -12.1916   -3.2194   33.3099 H   0  0  0  0  0  0  0  0  0  0  0  0
  -13.4296   -2.5784   32.4399 H   0  0  0  0  0  0  0  0  0  0  0  0
  -11.9276   -1.5044   31.2949 H   0  0  0  0  0  0  0  0  0  0  0  0
  -11.5436   -3.0094   30.6499 H   0  0  0  0  0  0  0  0  0  0  0  0
   -9.5796   -0.3554   31.4979 H   0  0  0  0  0  0  0  0  0  0  0  0
   -9.8496   -4.1724   32.7049 H   0  0  0  0  0  0  0  0  0  0  0  0
   -7.0246   -0.1904   33.3879 H   0  0  0  0  0  0  0  0  0  0  0  0
   -6.6656   -0.3964   31.7989 H   0  0  0  0  0  0  0  0  0  0  0  0
   -5.0376   -1.2554   33.3379 H   0  0  0  0  0  0  0  0  0  0  0  0
   -5.9546   -2.2684   33.7389 H   0  0  0  0  0  0  0  0  0  0  0  0
   -5.1836   -2.0844   31.0569 H   0  0  0  0  0  0  0  0  0  0  0  0
   -5.8896   -3.3794   31.7589 H   0  0  0  0  0  0  0  0  0  0  0  0
   -4.4216   -3.6544   29.6879 H   0  0  0  0  0  0  0  0  0  0  0  0
   -3.4266   -4.9854   29.3859 H   0  0  0  0  0  0  0  0  0  0  0  0
   -1.4036   -4.3784   27.7699 H   0  0  0  0  0  0  0  0  0  0  0  0
   -1.0556   -4.7184   29.3459 H   0  0  0  0  0  0  0  0  0  0  0  0
    0.3414   -2.9004   29.5369 H   0  0  0  0  0  0  0  0  0  0  0  0
   -0.1986   -2.2964   28.0779 H   0  0  0  0  0  0  0  0  0  0  0  0
    1.4754   -3.1854   27.0639 H   0  0  0  0  0  0  0  0  0  0  0  0
    0.9654   -4.6794   27.6029 H   0  0  0  0  0  0  0  0  0  0  0  0
    2.5494   -3.1974   29.4019 H   0  0  0  0  0  0  0  0  0  0  0  0
    3.3044   -3.8744   28.0629 H   0  0  0  0  0  0  0  0  0  0  0  0
    3.4314   -5.2014   30.1389 H   0  0  0  0  0  0  0  0  0  0  0  0
    2.9764   -5.9894   28.7929 H   0  0  0  0  0  0  0  0  0  0  0  0
    0.7334   -5.8194   29.3719 H   0  0  0  0  0  0  0  0  0  0  0  0
    1.2054   -4.8584   30.7029 H   0  0  0  0  0  0  0  0  0  0  0  0
   -0.3616   -7.6294   30.4249 H   0  0  0  0  0  0  0  0  0  0  0  0
   -0.4986   -6.1584   31.2909 H   0  0  0  0  0  0  0  0  0  0  0  0
   -5.2126   -5.0994   31.8679 H   0  0  0  0  0  0  0  0  0  0  0  0
   -4.2096   -8.6644   30.7649 H   0  0  0  0  0  0  0  0  0  0  0  0
   -2.8926   -8.4684   29.8159 H   0  0  0  0  0  0  0  0  0  0  0  0
   -2.7836   -9.3484   31.1819 H   0  0  0  0  0  0  0  0  0  0  0  0
   -3.4506   -8.1054   33.8629 H   0  0  0  0  0  0  0  0  0  0  0  0
   -2.1806   -9.1134   34.0729 H   0  0  0  0  0  0  0  0  0  0  0  0
   -2.1056   -7.5884   34.6369 H   0  0  0  0  0  0  0  0  0  0  0  0
   -2.6076   -2.7584   27.0949 H   0  0  0  0  0  0  0  0  0  0  0  0
   -4.0676   -2.8494   27.8249 H   0  0  0  0  0  0  0  0  0  0  0  0
   -3.1346   -1.5314   28.0399 H   0  0  0  0  0  0  0  0  0  0  0  0
   -3.7576   -2.7444   34.2169 H   0  0  0  0  0  0  0  0  0  0  0  0
  1  2  1  0
  2  3  1  0
  3  4  1  0
  4  5  2  0
  4  8  1  0
  5  6  1  0
  6  7  2  0
  6  9  1  0
  7  8  1  0
  9 10  1  0
 10 11  1  0
 11 12  1  0
 12 13  1  0
 12 34  1  0
 13 14  1  0
 13 30  1  0
 14 15  1  0
 15 16  1  0
 15 33  1  0
 16 17  1  0
 17 18  1  0
 18 19  1  0
 19 20  1  0
 20 21  1  0
 21 22  1  0
 22 23  1  0
 23 24  1  0
 24 25  2  0
 24 26  1  0
 26 27  1  0
 26 32  1  0
 27 28  1  0
 27 31  1  0
 28 29  2  0
 28 30  1  0
  1 39  1  0
  1 40  1  0
  1 41  1  0
  2 42  1  0
  2 43  1  0
  3 44  1  0
  3 45  1  0
  5 46  1  0
  8 47  1  0
  9 48  1  0
  9 49  1  0
 10 50  1  0
 10 51  1  0
 11 52  1  0
 11 53  1  0
 12 35  1  0
 13 36  1  0
 14 54  1  0
 14 55  1  0
 15 37  1  0
 16 56  1  0
 16 57  1  0
 17 58  1  0
 17 59  1  0
 18 60  1  0
 18 61  1  0
 19 62  1  0
 19 63  1  0
 20 64  1  0
 20 65  1  0
 21 66  1  0
 21 67  1  0
 23 68  1  0
 23 69  1  0
 27 38  1  0
 30 70  1  0
 31 71  1  0
 31 72  1  0
 31 73  1  0
 32 74  1  0
 32 75  1  0
 32 76  1  0
 33 77  1  0
 33 78  1  0
 33 79  1  0
 34 80  1  0
M  CHG  1  10   1
M  END
>  <LF dG>
-9.572

>  <LF VSscore>
-11.568

>  <LF Rank Score>
-10.331

>  <LF LE>
-0.282

>  <Favorite_cresset>
false

>  <Protein_cresset>
BACE_5_P

>  <MW_cresset>
480.7

>  <#Atoms_cresset>
34

>  <SlogP_cresset>
2.5

>  <TPSA_cresset>
124.2

>  <Flexibility_cresset>
16

>  <#RB_cresset>
8

>  <Rof5_cresset>
0

>  <Filename_cresset>
Bace5.smi

>  <Preferred Pose_cresset>
true

>  <_cresset_fieldpoints>
    -5      -7.356640      -4.255410      33.832893     -4.9610
    -5      -8.081640      -4.176410      31.004892     -2.3255
    -5      -4.277640      -5.259409      34.151894    -11.8935
    -5      -6.245640      -6.740410      33.676891     -9.4530
    -5       1.987360      -8.111410      32.849892    -14.8395
    -5       0.419360      -9.253409      34.701893    -11.7530
    -5      -5.541640      -9.045410      33.098892     -8.4125
    -6     -10.458640      -6.033410      32.733894      6.8755
    -6     -11.202641       0.614591      30.247892      5.3440
    -6     -13.570641      -2.270410      29.243893      4.3100
    -6      -3.106640      -1.014410      34.092892     10.7925
    -6      -0.544640      -3.306410      31.696894      7.6185
    -6      -1.006640      -3.758410      25.447893      4.5110
    -6      -1.704640      -6.827410      28.693893      9.3550
    -6      -8.016640       1.458591      30.914892      5.7565
    -7      -7.791640      -4.794410      31.107893     -2.8060
    -7      -9.948640      -5.205410      30.344893     -2.0600
    -7     -10.161640      -3.033410      35.123894     -2.0355
    -7      -5.671640      -6.448410      29.558893     -2.6955
    -7      -5.604640      -4.999410      34.305893     -2.7865
    -7      -6.785640      -4.800410      29.880894     -2.4965
    -7     -10.924641      -4.768410      34.857895     -1.6540
    -7     -11.807640      -0.531410      34.283894     -1.7110
    -7     -14.156639      -2.615410      29.470894     -1.5130
    -7      -7.017640      -2.869410      29.319893     -2.5795
    -7      -3.450640      -0.295410      30.481894     -2.6905
    -7     -10.664640      -0.799410      28.794893     -1.3705
    -7      -8.293640       1.943591      31.716892     -1.3350
    -7      -7.997640       1.451591      30.440893     -1.3165
    -7      -5.813640      -0.804410      35.796894     -1.3970
    -7      -4.647640      -5.510409      34.576893     -2.7975
    -7      -0.353640      -3.332410      31.949892     -3.6565
    -7      -1.382640      -5.097410      33.714893     -3.3200
    -7      -0.788640      -3.318409      25.365892     -2.0840
    -7      -1.144640      -0.180409      29.500893     -1.9525
    -7       2.090360      -0.602410      28.650892     -1.5810
    -7      -1.556640      -7.013410      28.230892     -3.3545
    -7       2.073360      -6.053410      33.282894     -1.7985
    -7      -5.285640      -9.731409      32.979893     -1.8765
    -7      -0.801640     -10.622410      32.213894     -1.9670
    -7      -7.093640      -4.748410      33.571892     -2.9430
    -7      -2.742640      -9.274410      36.923893     -0.6475
    -7      -3.432640      -5.832410      26.987892     -2.1085
    -7      -4.830640      -1.530410      35.839893     -1.4110
    -7      -2.653640      -0.693410      33.926891     -1.4680
    -8     -12.331640      -3.424410      31.790894      5.6460
    -8     -10.644640      -1.671410      31.558893      4.6310
    -8      -8.115640      -0.752410      32.177895      4.3410
    -8      -2.594640      -3.535409      28.818893      6.1880
    -8      -6.109640      -1.731410      32.287891      2.9640
    -8       0.065360      -3.845410      28.435894      5.8335
    -8       1.713360      -4.586410      29.016893      6.2625
    -8      -3.363640      -7.641410      30.944893      4.4965
    -8      -2.783640      -8.425409      34.628891      2.5510
    -8      -1.334640      -7.189409      31.141893      3.7140

$$$$
