Bace6:1_D
  xed2sdf_05210316543D
 
 83 85  0  0  1  0  0  0  0  0999 V2000
    2.2435   -5.9330   32.2735 C   0  0  0  0  0  0  0  0  0  0  0  0
    2.5885   -7.2640   31.5775 C   0  0  0  0  0  0  0  0  0  0  0  0
    2.0275   -7.3120   30.2125 N   0  0  0  0  0  0  0  0  0  0  0  0
    2.9165   -6.8660   29.1235 C   0  0  0  0  0  0  0  0  0  0  0  0
    2.9355   -5.3440   28.8675 C   0  0  0  0  0  0  0  0  0  0  0  0
    1.6305   -4.7970   28.2455 C   0  0  0  0  0  0  0  0  0  0  0  0
    0.5465   -4.4850   29.3005 C   0  0  0  0  0  0  0  0  0  0  0  0
   -0.5175   -3.5410   28.7045 C   0  0  0  0  0  0  0  0  0  0  0  0
   -1.6495   -3.2330   29.7115 C   0  0  0  0  0  0  0  0  0  0  0  0
   -2.7865   -4.2850   29.6655 C   0  0  0  0  0  0  0  0  0  0  0  0
   -3.2435   -4.7790   31.0595 C   0  0  0  0  0  0  0  0  0  0  0  0
   -4.1915   -5.8720   30.7685 N   0  0  0  0  0  0  0  0  0  0  0  0
   -3.9725   -7.1580   31.1285 C   0  0  0  0  0  0  0  0  0  0  0  0
   -4.8705   -7.9960   31.1415 O   0  0  0  0  0  0  0  0  0  0  0  0
   -2.6295   -7.6680   31.5025 C   0  0  0  0  0  0  0  0  0  0  0  0
   -2.4185   -8.3400   32.6975 C   0  0  0  0  0  0  0  0  0  0  0  0
   -1.1685   -8.8210   33.0065 C   0  0  0  0  0  0  0  0  0  0  0  0
   -0.1175   -8.6400   32.1375 C   0  0  0  0  0  0  0  0  0  0  0  0
   -0.2955   -7.9680   30.9345 C   0  0  0  0  0  0  0  0  0  0  0  0
   -1.5645   -7.5040   30.6385 C   0  0  0  0  0  0  0  0  0  0  0  0
    0.7665   -7.7210   29.9175 C   0  0  0  0  0  0  0  0  0  0  0  0
    0.3815   -7.8620   28.7575 O   0  0  0  0  0  0  0  0  0  0  0  0
   -3.9845   -3.6710   31.8485 C   0  0  0  0  0  0  0  0  0  0  0  0
   -4.9865   -2.8520   31.0035 C   0  0  0  0  0  0  0  0  0  0  0  0
   -5.2055   -1.4520   31.5125 N   0  3  0  0  0  0  0  0  0  0  0  0
   -6.2055   -1.3260   32.6345 C   0  0  0  0  0  0  0  0  0  0  0  0
   -7.6245   -1.6760   32.2075 C   0  0  0  0  0  0  0  0  0  0  0  0
   -8.2795   -2.7580   32.7515 C   0  0  0  0  0  0  0  0  0  0  0  0
   -9.5585   -3.0650   32.3485 C   0  0  0  0  0  0  0  0  0  0  0  0
  -10.1865   -2.2920   31.3995 C   0  0  0  0  0  0  0  0  0  0  0  0
   -9.5425   -1.2040   30.8465 C   0  0  0  0  0  0  0  0  0  0  0  0
   -8.2615   -0.9050   31.2595 C   0  0  0  0  0  0  0  0  0  0  0  0
  -10.2035   -0.3310   29.7865 C   0  0  0  0  0  0  0  0  0  0  0  0
   -9.4085    0.9550   29.4975 C   0  0  0  0  0  0  0  0  0  0  0  0
  -10.4655   -1.0530   28.4535 C   0  0  0  0  0  0  0  0  0  0  0  0
   -4.7205   -4.2460   32.9385 O   0  0  0  0  0  0  0  0  0  0  0  0
   -2.2405   -1.8540   29.3615 C   0  0  0  0  0  0  0  0  0  0  0  0
   -1.2595   -3.2490   30.6325 H   0  0  0  0  0  0  0  0  0  0  0  0
   -2.4605   -5.0580   31.6155 H   0  0  0  0  0  0  0  0  0  0  0  0
   -3.2645   -3.0520   32.1625 H   0  0  0  0  0  0  0  0  0  0  0  0
    1.9135   -5.2840   31.5885 H   0  0  0  0  0  0  0  0  0  0  0  0
    1.5345   -6.0860   32.9615 H   0  0  0  0  0  0  0  0  0  0  0  0
    3.0595   -5.5670   32.7215 H   0  0  0  0  0  0  0  0  0  0  0  0
    2.2145   -8.0200   32.1135 H   0  0  0  0  0  0  0  0  0  0  0  0
    3.5835   -7.3390   31.5125 H   0  0  0  0  0  0  0  0  0  0  0  0
    2.6275   -7.3200   28.2805 H   0  0  0  0  0  0  0  0  0  0  0  0
    3.8445   -7.1080   29.4085 H   0  0  0  0  0  0  0  0  0  0  0  0
    3.6925   -5.1360   28.2485 H   0  0  0  0  0  0  0  0  0  0  0  0
    3.0375   -4.9010   29.7585 H   0  0  0  0  0  0  0  0  0  0  0  0
    1.2705   -5.4770   27.6065 H   0  0  0  0  0  0  0  0  0  0  0  0
    1.8555   -3.9380   27.7855 H   0  0  0  0  0  0  0  0  0  0  0  0
    0.9715   -4.0490   30.0935 H   0  0  0  0  0  0  0  0  0  0  0  0
    0.1065   -5.3380   29.5785 H   0  0  0  0  0  0  0  0  0  0  0  0
   -0.9125   -3.9710   27.8925 H   0  0  0  0  0  0  0  0  0  0  0  0
   -0.0685   -2.6780   28.4725 H   0  0  0  0  0  0  0  0  0  0  0  0
   -2.4655   -5.0730   29.1395 H   0  0  0  0  0  0  0  0  0  0  0  0
   -3.5765   -3.8400   29.2445 H   0  0  0  0  0  0  0  0  0  0  0  0
   -4.9585   -5.6660   30.3885 H   0  0  0  0  0  0  0  0  0  0  0  0
   -3.1775   -8.4750   33.3345 H   0  0  0  0  0  0  0  0  0  0  0  0
   -1.0215   -9.3040   33.8695 H   0  0  0  0  0  0  0  0  0  0  0  0
    0.7855   -8.9980   32.3735 H   0  0  0  0  0  0  0  0  0  0  0  0
   -1.7165   -7.0350   29.7685 H   0  0  0  0  0  0  0  0  0  0  0  0
   -5.8645   -3.3310   31.0005 H   0  0  0  0  0  0  0  0  0  0  0  0
   -4.5975   -2.7710   30.0855 H   0  0  0  0  0  0  0  0  0  0  0  0
   -5.4835   -0.9350   30.8165 H   0  0  0  0  0  0  0  0  0  0  0  0
   -4.4125   -1.0790   31.7625 H   0  0  0  0  0  0  0  0  0  0  0  0
   -6.1935   -0.3840   32.9695 H   0  0  0  0  0  0  0  0  0  0  0  0
   -5.9395   -1.9760   33.3465 H   0  0  0  0  0  0  0  0  0  0  0  0
   -7.8245   -3.3220   33.4405 H   0  0  0  0  0  0  0  0  0  0  0  0
  -10.0335   -3.8500   32.7465 H   0  0  0  0  0  0  0  0  0  0  0  0
  -11.1155   -2.5200   31.1075 H   0  0  0  0  0  0  0  0  0  0  0  0
   -7.7885   -0.1170   30.8655 H   0  0  0  0  0  0  0  0  0  0  0  0
  -11.0865   -0.0960   30.1935 H   0  0  0  0  0  0  0  0  0  0  0  0
   -9.2465    1.0240   28.5135 H   0  0  0  0  0  0  0  0  0  0  0  0
   -9.9285    1.7510   29.8095 H   0  0  0  0  0  0  0  0  0  0  0  0
   -8.5345    0.9270   29.9825 H   0  0  0  0  0  0  0  0  0  0  0  0
  -10.0605   -0.5220   27.7095 H   0  0  0  0  0  0  0  0  0  0  0  0
  -10.0565   -1.9660   28.4775 H   0  0  0  0  0  0  0  0  0  0  0  0
  -11.4505   -1.1430   28.3075 H   0  0  0  0  0  0  0  0  0  0  0  0
   -4.5295   -3.7660   33.8025 H   0  0  0  0  0  0  0  0  0  0  0  0
   -3.2205   -1.9550   29.1855 H   0  0  0  0  0  0  0  0  0  0  0  0
   -2.0995   -1.2220   30.1245 H   0  0  0  0  0  0  0  0  0  0  0  0
   -1.7875   -1.4900   28.5485 H   0  0  0  0  0  0  0  0  0  0  0  0
  1  2  1  0
  2  3  1  0
  3  4  1  0
  3 21  1  0
  4  5  1  0
  5  6  1  0
  6  7  1  0
  7  8  1  0
  8  9  1  0
  9 10  1  0
  9 37  1  0
 10 11  1  0
 11 12  1  0
 11 23  1  0
 12 13  1  0
 13 14  2  0
 13 15  1  0
 15 16  2  0
 15 20  1  0
 16 17  1  0
 17 18  2  0
 18 19  1  0
 19 20  2  0
 19 21  1  0
 21 22  2  0
 23 24  1  0
 23 36  1  0
 24 25  1  0
 25 26  1  0
 26 27  1  0
 27 28  2  0
 27 32  1  0
 28 29  1  0
 29 30  2  0
 30 31  1  0
 31 32  2  0
 31 33  1  0
 33 34  1  0
 33 35  1  0
  1 41  1  0
  1 42  1  0
  1 43  1  0
  2 44  1  0
  2 45  1  0
  4 46  1  0
  4 47  1  0
  5 48  1  0
  5 49  1  0
  6 50  1  0
  6 51  1  0
  7 52  1  0
  7 53  1  0
  8 54  1  0
  8 55  1  0
  9 38  1  0
 10 56  1  0
 10 57  1  0
 11 39  1  0
 12 58  1  0
 16 59  1  0
 17 60  1  0
 18 61  1  0
 20 62  1  0
 23 40  1  0
 24 63  1  0
 24 64  1  0
 25 65  1  0
 25 66  1  0
 26 67  1  0
 26 68  1  0
 28 69  1  0
 29 70  1  0
 30 71  1  0
 32 72  1  0
 33 73  1  0
 34 74  1  0
 34 75  1  0
 34 76  1  0
 35 77  1  0
 35 78  1  0
 35 79  1  0
 36 80  1  0
 37 81  1  0
 37 82  1  0
 37 83  1  0
M  CHG  1  25   1
M  END
>  <LF dG>
-8.672

>  <LF VSscore>
-10.588

>  <LF Rank Score>
-9.374

>  <LF LE>
-0.234

>  <Favorite_cresset>
false

>  <Protein_cresset>
BACE_5_P

>  <MW_cresset>
508.7

>  <#Atoms_cresset>
37

>  <SlogP_cresset>
5.5

>  <TPSA_cresset>
86.2

>  <Flexibility_cresset>
13.5

>  <#RB_cresset>
8

>  <Rof5_cresset>
2

>  <Filename_cresset>
Bace6.smi

>  <Preferred Pose_cresset>
true

>  <_cresset_fieldpoints>
    -5      -1.020473      -8.913976      27.916500     -9.8100
    -5      -4.791473      -9.906976      31.092501    -10.9365
    -5      -5.609473      -5.861976      32.631500    -12.3565
    -5      -6.730474      -7.705976      31.057501    -10.2155
    -5     -10.157474      -0.285976      33.767502     -3.4390
    -5      -8.222473      -4.029976      29.815500     -3.8705
    -6       5.246527      -5.638976      31.133501      5.5100
    -6       2.015527      -8.734976      34.325500      6.6080
    -6      -3.729474      -2.239976      34.347500     11.5480
    -6      -5.802474      -4.495976      28.682501      3.7805
    -6     -13.103474      -1.953976      30.162500      2.8920
    -6      -6.023474       0.800024      29.730501      7.0330
    -7      -0.435473      -4.479976      32.676502     -3.7975
    -7      -6.550473      -5.620976      32.346500     -3.3630
    -7       1.749527      -8.070976      34.801502     -1.9480
    -7      -2.838474      -5.467976      34.241501     -2.6545
    -7       0.865526      -1.588976      30.994501     -2.1810
    -7       2.827526      -2.778976      31.188501     -2.1490
    -7       5.256527      -6.907976      33.552502     -1.0760
    -7       2.423527     -10.121976      30.139500     -2.3325
    -7       0.815527      -7.608976      26.382500     -1.9305
    -7       2.962527      -6.498976      25.733501     -1.5205
    -7       5.331527      -5.353976      31.080502     -2.0420
    -7      -1.220474      -6.552976      27.426500     -3.6235
    -7       0.361526      -3.269976      25.619501     -1.5695
    -7       2.405526      -1.900976      29.696501     -2.0610
    -7      -3.190474      -3.312976      26.602501     -2.0940
    -7      -3.888474      -6.981976      28.194500     -2.6270
    -7      -3.713474     -10.354976      30.109501     -1.6645
    -7      -2.107473     -10.876976      30.237501     -1.8425
    -7      -0.856473     -10.160976      28.587502     -1.7060
    -7      -1.903473      -1.073976      32.641502     -2.1730
    -7      -3.436473      -1.552976      34.246502     -1.9875
    -7      -6.027473       1.542024      30.887501     -2.2865
    -7      -3.956474       0.810024      30.042501     -1.8400
    -7     -10.069473       0.253024      33.844501     -2.0420
    -7     -10.188474       1.374024      32.774502     -2.0830
    -7     -13.292473      -1.600976      30.255501     -1.8015
    -7     -11.901473      -3.902976      29.106501     -1.6185
    -7     -12.426474       1.604024      28.306501     -1.5305
    -7      -6.951473      -1.901976      28.576500     -3.1595
    -7      -7.589474      -3.218976      29.005501     -3.1760
    -8       1.712527      -4.919976      28.981501      5.7530
    -8      -1.360473      -8.146976      31.823502      7.1440
    -8       2.466527      -6.549976      32.216499      4.4915
    -8       0.543526      -4.220976      28.639500      5.8115
    -8      -1.870474      -3.243976      29.283501      6.2245
    -8      -0.730474      -3.926976      29.375500      5.9375
    -8      -2.845474      -3.617976      30.447500      6.0230
    -8      -8.909473      -1.976976      31.794500      7.2335
    -8      -9.257474      -0.254976      30.256500      6.1830
    -8      -9.538473      -1.082976      30.710501      5.8435
    -8      -9.715473      -0.379976      29.687500      6.0840

$$$$
