Bace7:1_D
  xed2sdf_05210316543D
 
 99103  0  0  1  0  0  0  0  0999 V2000
   -3.1327   -6.6296   35.1332 C   0  0  0  0  0  0  0  0  0  0  0  0
   -3.4527   -6.2166   33.6812 C   0  0  0  0  0  0  0  0  0  0  0  0
   -2.1967   -6.3906   32.7922 C   0  0  0  0  0  0  0  0  0  0  0  0
   -1.6917   -7.8546   32.7442 C   0  0  0  0  0  0  0  0  0  0  0  0
   -1.0667   -8.2846   31.3952 C   0  0  0  0  0  0  0  0  0  0  0  0
    0.3523   -7.7316   31.1142 C   0  0  0  0  0  0  0  0  0  0  0  0
    0.2953   -6.3226   30.4872 C   0  0  0  0  0  0  0  0  0  0  0  0
    1.3943   -5.5706   29.8402 N   0  0  0  0  0  0  0  0  0  0  0  0
    1.1653   -4.4576   29.0772 C   0  0  0  0  0  0  0  0  0  0  0  0
    2.0773   -3.8346   28.5362 O   0  0  0  0  0  0  0  0  0  0  0  0
   -0.1877   -3.8796   28.7822 C   0  0  0  0  0  0  0  0  0  0  0  0
   -0.3547   -3.0936   27.6492 C   0  0  0  0  0  0  0  0  0  0  0  0
   -1.5807   -2.5436   27.3092 C   0  0  0  0  0  0  0  0  0  0  0  0
   -2.6877   -2.7996   28.0972 C   0  0  0  0  0  0  0  0  0  0  0  0
   -2.5557   -3.5636   29.2412 C   0  0  0  0  0  0  0  0  0  0  0  0
   -1.3107   -4.0596   29.5752 C   0  0  0  0  0  0  0  0  0  0  0  0
   -3.6997   -3.8896   30.1242 C   0  0  0  0  0  0  0  0  0  0  0  0
   -4.7507   -4.2156   29.5772 O   0  0  0  0  0  0  0  0  0  0  0  0
   -3.5107   -3.8426   31.4612 N   0  0  0  0  0  0  0  0  0  0  0  0
   -4.5777   -4.2336   32.3992 C   0  0  0  0  0  0  0  0  0  0  0  0
   -3.9487   -4.7506   33.7182 C   0  0  0  0  0  0  0  0  0  0  0  0
   -5.5007   -3.0296   32.7102 C   0  0  0  0  0  0  0  0  0  0  0  0
   -6.3377   -2.6346   31.4782 C   0  0  0  0  0  0  0  0  0  0  0  0
   -6.4357   -1.1456   31.3182 N   0  3  0  0  0  0  0  0  0  0  0  0
   -7.5537   -0.5236   32.1112 C   0  0  0  0  0  0  0  0  0  0  0  0
   -8.9037   -1.1386   31.7822 C   0  0  0  0  0  0  0  0  0  0  0  0
   -9.5717   -0.7666   30.6372 C   0  0  0  0  0  0  0  0  0  0  0  0
  -10.7957   -1.3196   30.3422 C   0  0  0  0  0  0  0  0  0  0  0  0
  -11.3547   -2.2456   31.1922 C   0  0  0  0  0  0  0  0  0  0  0  0
  -10.6937   -2.6296   32.3402 C   0  0  0  0  0  0  0  0  0  0  0  0
   -9.4667   -2.0716   32.6252 C   0  0  0  0  0  0  0  0  0  0  0  0
  -11.2817   -3.6436   33.3142 C   0  0  0  0  0  0  0  0  0  0  0  0
  -12.4237   -4.5016   32.7382 C   0  0  0  0  0  0  0  0  0  0  0  0
  -11.7757   -2.9876   34.6152 C   0  0  0  0  0  0  0  0  0  0  0  0
   -6.3787   -3.3406   33.8042 O   0  0  0  0  0  0  0  0  0  0  0  0
   -1.7017   -1.7046   26.1422 C   0  0  0  0  0  0  0  0  0  0  0  0
   -2.1097   -2.0966   24.9472 N   0  0  0  0  0  0  0  0  0  0  0  0
   -2.0627   -1.0136   24.1202 C   0  0  0  0  0  0  0  0  0  0  0  0
   -1.6237   -0.0046   24.8632 C   0  0  0  0  0  0  0  0  0  0  0  0
   -1.4007   -0.4466   26.1322 O   0  0  0  0  0  0  0  0  0  0  0  0
    2.7783   -6.0556   30.0732 C   0  0  0  0  0  0  0  0  0  0  0  0
    2.9653   -7.5106   29.5932 C   0  0  0  0  0  0  0  0  0  0  0  0
    3.3023   -5.7506   31.4772 C   0  0  0  0  0  0  0  0  0  0  0  0
    2.4483   -5.2006   32.4092 C   0  0  0  0  0  0  0  0  0  0  0  0
    2.8843   -4.9106   33.6822 C   0  0  0  0  0  0  0  0  0  0  0  0
    4.1873   -5.1666   34.0372 C   0  0  0  0  0  0  0  0  0  0  0  0
    5.0503   -5.7136   33.1162 C   0  0  0  0  0  0  0  0  0  0  0  0
    4.6083   -6.0016   31.8452 C   0  0  0  0  0  0  0  0  0  0  0  0
   -4.1647   -6.7956   33.2832 H   0  0  0  0  0  0  0  0  0  0  0  0
   -5.1227   -4.9576   31.9752 H   0  0  0  0  0  0  0  0  0  0  0  0
   -4.9167   -2.2576   32.9602 H   0  0  0  0  0  0  0  0  0  0  0  0
    3.3853   -5.5166   29.4892 H   0  0  0  0  0  0  0  0  0  0  0  0
   -2.5377   -7.4326   35.1202 H   0  0  0  0  0  0  0  0  0  0  0  0
   -2.6727   -5.8776   35.6052 H   0  0  0  0  0  0  0  0  0  0  0  0
   -3.9817   -6.8466   35.6162 H   0  0  0  0  0  0  0  0  0  0  0  0
   -1.4657   -5.8096   33.1532 H   0  0  0  0  0  0  0  0  0  0  0  0
   -2.4487   -6.1296   31.8612 H   0  0  0  0  0  0  0  0  0  0  0  0
   -2.4657   -8.4576   32.9372 H   0  0  0  0  0  0  0  0  0  0  0  0
   -0.9607   -7.9206   33.4232 H   0  0  0  0  0  0  0  0  0  0  0  0
   -1.6717   -7.9756   30.6612 H   0  0  0  0  0  0  0  0  0  0  0  0
   -0.9697   -9.2786   31.4422 H   0  0  0  0  0  0  0  0  0  0  0  0
    0.8263   -8.3506   30.4882 H   0  0  0  0  0  0  0  0  0  0  0  0
    0.8413   -7.6666   31.9842 H   0  0  0  0  0  0  0  0  0  0  0  0
   -0.0217   -5.7276   31.2252 H   0  0  0  0  0  0  0  0  0  0  0  0
   -0.2367   -6.5436   29.6692 H   0  0  0  0  0  0  0  0  0  0  0  0
    0.4343   -2.9186   27.0602 H   0  0  0  0  0  0  0  0  0  0  0  0
   -3.5817   -2.4326   27.8392 H   0  0  0  0  0  0  0  0  0  0  0  0
   -1.2157   -4.5736   30.4272 H   0  0  0  0  0  0  0  0  0  0  0  0
   -2.7367   -3.5676   31.7802 H   0  0  0  0  0  0  0  0  0  0  0  0
   -3.1697   -4.1646   33.9422 H   0  0  0  0  0  0  0  0  0  0  0  0
   -4.6767   -4.7206   34.4022 H   0  0  0  0  0  0  0  0  0  0  0  0
   -7.2587   -3.0116   31.5772 H   0  0  0  0  0  0  0  0  0  0  0  0
   -5.8847   -3.0026   30.6662 H   0  0  0  0  0  0  0  0  0  0  0  0
   -5.6467   -0.7626   31.5602 H   0  0  0  0  0  0  0  0  0  0  0  0
   -6.5287   -0.9456   30.4352 H   0  0  0  0  0  0  0  0  0  0  0  0
   -7.5857    0.4554   31.9102 H   0  0  0  0  0  0  0  0  0  0  0  0
   -7.3707   -0.6906   33.0802 H   0  0  0  0  0  0  0  0  0  0  0  0
   -9.1657   -0.0926   30.0202 H   0  0  0  0  0  0  0  0  0  0  0  0
  -11.2787   -1.0496   29.5092 H   0  0  0  0  0  0  0  0  0  0  0  0
  -12.2467   -2.6426   30.9762 H   0  0  0  0  0  0  0  0  0  0  0  0
   -8.9797   -2.3466   33.4532 H   0  0  0  0  0  0  0  0  0  0  0  0
  -10.5127   -4.2536   33.5052 H   0  0  0  0  0  0  0  0  0  0  0  0
  -13.2187   -4.4336   33.3402 H   0  0  0  0  0  0  0  0  0  0  0  0
  -12.6637   -4.1736   31.8242 H   0  0  0  0  0  0  0  0  0  0  0  0
  -12.1287   -5.4556   32.6742 H   0  0  0  0  0  0  0  0  0  0  0  0
  -12.7197   -3.2686   34.7842 H   0  0  0  0  0  0  0  0  0  0  0  0
  -11.1967   -3.2736   35.3792 H   0  0  0  0  0  0  0  0  0  0  0  0
  -11.7297   -1.9926   34.5282 H   0  0  0  0  0  0  0  0  0  0  0  0
   -5.8647   -3.6286   34.6192 H   0  0  0  0  0  0  0  0  0  0  0  0
   -2.3097   -0.9846   23.1522 H   0  0  0  0  0  0  0  0  0  0  0  0
   -1.4797    0.9314   24.5412 H   0  0  0  0  0  0  0  0  0  0  0  0
    3.4193   -8.0346   30.3132 H   0  0  0  0  0  0  0  0  0  0  0  0
    2.0743   -7.9166   29.3902 H   0  0  0  0  0  0  0  0  0  0  0  0
    3.5233   -7.5216   28.7632 H   0  0  0  0  0  0  0  0  0  0  0  0
    1.4993   -5.0096   32.1572 H   0  0  0  0  0  0  0  0  0  0  0  0
    2.2523   -4.5136   34.3482 H   0  0  0  0  0  0  0  0  0  0  0  0
    4.5063   -4.9576   34.9612 H   0  0  0  0  0  0  0  0  0  0  0  0
    5.9993   -5.9006   33.3702 H   0  0  0  0  0  0  0  0  0  0  0  0
    5.2413   -6.3986   31.1802 H   0  0  0  0  0  0  0  0  0  0  0  0
  1  2  1  0
  2  3  1  0
  2 21  1  0
  3  4  1  0
  4  5  1  0
  5  6  1  0
  6  7  1  0
  7  8  1  0
  8  9  1  0
  8 41  1  0
  9 10  2  0
  9 11  1  0
 11 12  2  0
 11 16  1  0
 12 13  1  0
 13 14  2  0
 13 36  1  0
 14 15  1  0
 15 16  2  0
 15 17  1  0
 17 18  2  0
 17 19  1  0
 19 20  1  0
 20 21  1  0
 20 22  1  0
 22 23  1  0
 22 35  1  0
 23 24  1  0
 24 25  1  0
 25 26  1  0
 26 27  2  0
 26 31  1  0
 27 28  1  0
 28 29  2  0
 29 30  1  0
 30 31  2  0
 30 32  1  0
 32 33  1  0
 32 34  1  0
 36 37  2  0
 36 40  1  0
 37 38  1  0
 38 39  2  0
 39 40  1  0
 41 42  1  0
 41 43  1  0
 43 44  2  0
 43 48  1  0
 44 45  1  0
 45 46  2  0
 46 47  1  0
 47 48  2  0
  1 53  1  0
  1 54  1  0
  1 55  1  0
  2 49  1  0
  3 56  1  0
  3 57  1  0
  4 58  1  0
  4 59  1  0
  5 60  1  0
  5 61  1  0
  6 62  1  0
  6 63  1  0
  7 64  1  0
  7 65  1  0
 12 66  1  0
 14 67  1  0
 16 68  1  0
 19 69  1  0
 20 50  1  0
 21 70  1  0
 21 71  1  0
 22 51  1  0
 23 72  1  0
 23 73  1  0
 24 74  1  0
 24 75  1  0
 25 76  1  0
 25 77  1  0
 27 78  1  0
 28 79  1  0
 29 80  1  0
 31 81  1  0
 32 82  1  0
 33 83  1  0
 33 84  1  0
 33 85  1  0
 34 86  1  0
 34 87  1  0
 34 88  1  0
 35 89  1  0
 38 90  1  0
 39 91  1  0
 41 52  1  0
 42 92  1  0
 42 93  1  0
 42 94  1  0
 44 95  1  0
 45 96  1  0
 46 97  1  0
 47 98  1  0
 48 99  1  0
M  CHG  1  24   1
M  END
>  <LF dG>
-12.851

>  <LF VSscore>
-16.627

>  <LF Rank Score>
-15.62

>  <LF LE>
-0.268

>  <Favorite_cresset>
false

>  <Protein_cresset>
BACE_7_P

>  <MW_cresset>
651.9

>  <#Atoms_cresset>
48

>  <SlogP_cresset>
7.3

>  <TPSA_cresset>
112.3

>  <Flexibility_cresset>
14.5

>  <#RB_cresset>
10

>  <Rof5_cresset>
2

>  <Filename_cresset>
Bace7.smi

>  <Preferred Pose_cresset>
true

>  <_cresset_fieldpoints>
    -5      -5.361712      -4.750620      27.823223     -8.1120
    -5      -6.550712      -5.003620      29.352224     -7.8065
    -5       3.135288      -8.155621      33.602222     -1.9300
    -5      -2.659712      -3.883620      24.444223     -7.2575
    -5     -11.515712       0.270380      33.032223     -4.6300
    -5      -8.936712      -3.995620      30.099224     -6.2315
    -5      -7.843712      -4.508620      33.353222     -5.8915
    -5       3.811288      -3.128620      29.181223     -8.0190
    -6       2.085288     -10.334620      30.854223      3.5165
    -6       0.701288      -9.797620      33.625225      3.3985
    -6      -2.433712      -6.825620      28.958223      3.1095
    -6      -0.233712      -8.964621      28.398224      3.2320
    -6      -4.663713      -2.845620      35.744225     10.3180
    -6       6.045288      -7.917621      29.820223      3.7585
    -6      -7.218712       0.756380      29.122223      4.2900
    -6      -4.146712      -9.467620      34.467224      3.5240
    -6     -14.215712      -3.108620      30.087223      2.3465
    -6      -1.865712       2.008380      22.647224      3.7650
    -6       6.571288      -5.414620      35.991222      3.4015
    -6      -0.859712      -3.652620      32.527222     13.1080
    -6       7.335288      -7.371620      31.489223      3.3030
    -7      -4.461712      -3.955620      36.791222     -1.6400
    -7       2.914288      -8.691620      32.988224     -2.9930
    -7      -6.855712      -5.497620      30.168224     -2.2270
    -7      -4.623712      -9.324620      34.009224     -1.7770
    -7       2.161288      -2.399620      30.822224     -2.7430
    -7      -0.443712      -3.576620      32.704224     -4.0940
    -7       0.748288      -6.765620      27.266224     -3.0040
    -7      -8.844712      -4.376620      30.119225     -2.7575
    -7      -7.513712      -2.020620      35.331223     -2.5800
    -7      -7.132712       1.265380      29.362225     -1.7345
    -7     -11.612712       0.437380      33.425224     -2.3770
    -7      -6.002712      -2.268620      28.260223     -2.6520
    -7     -14.158712      -1.688620      32.813225     -2.2310
    -7     -11.387712      -6.178620      35.404224     -1.5385
    -7      -7.992712      -5.003620      33.258224     -3.3840
    -7      -4.385712      -2.205620      35.644222     -1.8500
    -7      -4.014712      -6.766620      30.096224     -3.6985
    -7      -2.035712       1.546380      21.823223     -0.7905
    -7      -3.189712      -1.075620      31.244225     -3.2815
    -7      -0.921712      -0.722620      30.249224     -2.1040
    -7      -3.527712       0.420380      27.915224     -1.7840
    -7       0.245288      -6.303620      34.996223     -3.1085
    -7       1.321288      -7.686620      34.454224     -2.7945
    -7       7.060288      -5.386620      35.834225     -0.9685
    -7       5.880288      -6.060620      28.734224     -1.8195
    -8      -0.817712      -7.449620      31.805223      5.9970
    -8      -3.072712      -5.955620      33.872223      6.1625
    -8      -2.560712      -6.887620      33.639225      6.1525
    -8       3.740288      -5.462620      32.756226      7.1980
    -8       3.591288      -6.469620      30.748224      5.5135
    -8      -1.445712      -3.325620      28.446224      7.0905
    -8      -5.533712      -3.457620      31.892223      4.4345
    -8     -10.129712      -1.700620      31.495224      7.2395
    -8     -11.647712      -3.385620      33.186222      6.0595
    -8     -10.760713      -2.693620      32.451225      5.8430
    -8      -1.892712      -0.034620      23.855225      3.2445

$$$$
