Bace9:1_D
  xed2sdf_05210316543D
 
 88 90  0  0  1  0  0  0  0  0999 V2000
   -4.7137   -6.9505   31.2852 C   0  0  0  0  0  0  0  0  0  0  0  0
   -3.7077   -6.1965   32.1792 C   0  0  0  0  0  0  0  0  0  0  0  0
   -2.9587   -7.2005   33.0913 C   0  0  0  0  0  0  0  0  0  0  0  0
   -1.6977   -7.8215   32.4412 C   0  0  0  0  0  0  0  0  0  0  0  0
   -0.5897   -6.7735   32.1652 C   0  0  0  0  0  0  0  0  0  0  0  0
    0.8383   -7.3125   32.4102 C   0  0  0  0  0  0  0  0  0  0  0  0
    1.4313   -8.0145   31.1652 C   0  0  0  0  0  0  0  0  0  0  0  0
    2.4393   -7.1405   30.3783 C   0  0  0  0  0  0  0  0  0  0  0  0
    1.7803   -6.1275   29.4182 C   0  0  0  0  0  0  0  0  0  0  0  0
    1.1813   -4.9435   30.0562 N   0  0  0  0  0  0  0  0  0  0  0  0
    0.1253   -4.2885   29.4163 C   0  0  0  0  0  0  0  0  0  0  0  0
    0.1873   -3.9845   28.0653 C   0  0  0  0  0  0  0  0  0  0  0  0
   -0.8767   -3.3695   27.4462 C   0  0  0  0  0  0  0  0  0  0  0  0
   -2.0067   -3.0635   28.1682 C   0  0  0  0  0  0  0  0  0  0  0  0
   -2.0967   -3.3605   29.5212 C   0  0  0  0  0  0  0  0  0  0  0  0
   -1.0077   -3.9595   30.1313 C   0  0  0  0  0  0  0  0  0  0  0  0
   -3.3557   -3.1065   30.2703 C   0  0  0  0  0  0  0  0  0  0  0  0
   -4.3297   -2.7395   29.6152 O   0  0  0  0  0  0  0  0  0  0  0  0
   -3.4047   -3.3555   31.5963 N   0  0  0  0  0  0  0  0  0  0  0  0
   -4.6657   -3.7945   32.2103 C   0  0  0  0  0  0  0  0  0  0  0  0
   -4.4247   -5.0995   33.0112 C   0  0  0  0  0  0  0  0  0  0  0  0
   -5.3707   -2.6605   32.9922 C   0  0  0  0  0  0  0  0  0  0  0  0
   -6.9107   -2.6255   32.8763 C   0  0  0  0  0  0  0  0  0  0  0  0
   -7.3447   -2.0285   31.5642 N   0  3  0  0  0  0  0  0  0  0  0  0
   -8.4297   -0.9925   31.6702 C   0  0  0  0  0  0  0  0  0  0  0  0
   -9.7817   -1.5785   31.2962 C   0  0  0  0  0  0  0  0  0  0  0  0
  -10.4527   -1.1045   30.1912 C   0  0  0  0  0  0  0  0  0  0  0  0
  -11.6707   -1.6395   29.8412 C   0  0  0  0  0  0  0  0  0  0  0  0
  -12.2217   -2.6475   30.5982 C   0  0  0  0  0  0  0  0  0  0  0  0
  -11.5617   -3.1265   31.7113 C   0  0  0  0  0  0  0  0  0  0  0  0
  -10.3407   -2.5855   32.0513 C   0  0  0  0  0  0  0  0  0  0  0  0
  -12.1487   -4.2415   32.5682 C   0  0  0  0  0  0  0  0  0  0  0  0
  -13.3377   -4.9505   31.8953 C   0  0  0  0  0  0  0  0  0  0  0  0
  -12.5867   -3.7805   33.9702 C   0  0  0  0  0  0  0  0  0  0  0  0
   -5.0167   -2.7725   34.3783 O   0  0  0  0  0  0  0  0  0  0  0  0
   -0.8237   -3.0515   25.9632 C   0  0  0  0  0  0  0  0  0  0  0  0
   -0.0967   -1.8335   25.7323 O   0  0  0  0  0  0  0  0  0  0  0  0
   -0.9617   -0.7685   25.3092 C   0  0  0  0  0  0  0  0  0  0  0  0
   -3.0357   -5.7375   31.5972 H   0  0  0  0  0  0  0  0  0  0  0  0
   -5.3267   -4.0195   31.4942 H   0  0  0  0  0  0  0  0  0  0  0  0
   -5.0517   -1.8085   32.5762 H   0  0  0  0  0  0  0  0  0  0  0  0
   -4.5617   -6.6905   30.3323 H   0  0  0  0  0  0  0  0  0  0  0  0
   -4.5847   -7.9365   31.3902 H   0  0  0  0  0  0  0  0  0  0  0  0
   -5.6467   -6.7135   31.5553 H   0  0  0  0  0  0  0  0  0  0  0  0
   -3.5877   -7.9395   33.3312 H   0  0  0  0  0  0  0  0  0  0  0  0
   -2.6467   -6.6875   33.8913 H   0  0  0  0  0  0  0  0  0  0  0  0
   -1.9597   -8.2505   31.5763 H   0  0  0  0  0  0  0  0  0  0  0  0
   -1.3257   -8.4915   33.0843 H   0  0  0  0  0  0  0  0  0  0  0  0
   -0.7407   -5.9855   32.7622 H   0  0  0  0  0  0  0  0  0  0  0  0
   -0.6507   -6.5285   31.1982 H   0  0  0  0  0  0  0  0  0  0  0  0
    0.8103   -7.9655   33.1662 H   0  0  0  0  0  0  0  0  0  0  0  0
    1.4243   -6.5305   32.6222 H   0  0  0  0  0  0  0  0  0  0  0  0
    0.6803   -8.2635   30.5532 H   0  0  0  0  0  0  0  0  0  0  0  0
    1.9343   -8.8145   31.4932 H   0  0  0  0  0  0  0  0  0  0  0  0
    3.0303   -7.7445   29.8433 H   0  0  0  0  0  0  0  0  0  0  0  0
    2.9463   -6.6065   31.0542 H   0  0  0  0  0  0  0  0  0  0  0  0
    1.0613   -6.6045   28.9123 H   0  0  0  0  0  0  0  0  0  0  0  0
    2.5173   -5.7815   28.8392 H   0  0  0  0  0  0  0  0  0  0  0  0
    1.2053   -4.9075   30.9362 H   0  0  0  0  0  0  0  0  0  0  0  0
    1.0063   -4.2135   27.5402 H   0  0  0  0  0  0  0  0  0  0  0  0
   -2.7777   -2.6195   27.7102 H   0  0  0  0  0  0  0  0  0  0  0  0
   -1.0427   -4.1585   31.1112 H   0  0  0  0  0  0  0  0  0  0  0  0
   -2.6737   -3.3285   32.0853 H   0  0  0  0  0  0  0  0  0  0  0  0
   -3.8637   -4.8865   33.8112 H   0  0  0  0  0  0  0  0  0  0  0  0
   -5.3197   -5.4595   33.2733 H   0  0  0  0  0  0  0  0  0  0  0  0
   -7.2837   -2.0785   33.6252 H   0  0  0  0  0  0  0  0  0  0  0  0
   -7.2517   -3.5645   32.9232 H   0  0  0  0  0  0  0  0  0  0  0  0
   -7.6067   -2.6875   30.9972 H   0  0  0  0  0  0  0  0  0  0  0  0
   -6.6267   -1.6525   31.1483 H   0  0  0  0  0  0  0  0  0  0  0  0
   -8.2187   -0.2325   31.0562 H   0  0  0  0  0  0  0  0  0  0  0  0
   -8.4737   -0.6735   32.6172 H   0  0  0  0  0  0  0  0  0  0  0  0
  -10.0547   -0.3705   29.6413 H   0  0  0  0  0  0  0  0  0  0  0  0
  -12.1557   -1.2955   29.0362 H   0  0  0  0  0  0  0  0  0  0  0  0
  -13.1057   -3.0365   30.3393 H   0  0  0  0  0  0  0  0  0  0  0  0
   -9.8547   -2.9285   32.8553 H   0  0  0  0  0  0  0  0  0  0  0  0
  -11.3907   -4.8855   32.6693 H   0  0  0  0  0  0  0  0  0  0  0  0
  -14.1157   -4.9465   32.5223 H   0  0  0  0  0  0  0  0  0  0  0  0
  -13.5817   -4.4715   31.0513 H   0  0  0  0  0  0  0  0  0  0  0  0
  -13.0857   -5.8925   31.6733 H   0  0  0  0  0  0  0  0  0  0  0  0
  -13.5387   -4.0475   34.1182 H   0  0  0  0  0  0  0  0  0  0  0  0
  -12.0057   -4.2075   34.6632 H   0  0  0  0  0  0  0  0  0  0  0  0
  -12.4997   -2.7865   34.0402 H   0  0  0  0  0  0  0  0  0  0  0  0
   -4.3397   -2.0755   34.6413 H   0  0  0  0  0  0  0  0  0  0  0  0
   -1.7557   -2.9525   25.6133 H   0  0  0  0  0  0  0  0  0  0  0  0
   -0.3577   -3.7995   25.4902 H   0  0  0  0  0  0  0  0  0  0  0  0
   -1.9007   -1.1095   25.2642 H   0  0  0  0  0  0  0  0  0  0  0  0
   -0.9087   -0.0105   25.9592 H   0  0  0  0  0  0  0  0  0  0  0  0
   -0.6787   -0.4425   24.4072 H   0  0  0  0  0  0  0  0  0  0  0  0
  1  2  1  0
  2  3  1  0
  2 21  1  0
  3  4  1  0
  4  5  1  0
  5  6  1  0
  6  7  1  0
  7  8  1  0
  8  9  1  0
  9 10  1  0
 10 11  1  0
 11 12  2  0
 11 16  1  0
 12 13  1  0
 13 14  2  0
 13 36  1  0
 14 15  1  0
 15 16  2  0
 15 17  1  0
 17 18  2  0
 17 19  1  0
 19 20  1  0
 20 21  1  0
 20 22  1  0
 22 23  1  0
 22 35  1  0
 23 24  1  0
 24 25  1  0
 25 26  1  0
 26 27  2  0
 26 31  1  0
 27 28  1  0
 28 29  2  0
 29 30  1  0
 30 31  2  0
 30 32  1  0
 32 33  1  0
 32 34  1  0
 36 37  1  0
 37 38  1  0
  1 42  1  0
  1 43  1  0
  1 44  1  0
  2 39  1  0
  3 45  1  0
  3 46  1  0
  4 47  1  0
  4 48  1  0
  5 49  1  0
  5 50  1  0
  6 51  1  0
  6 52  1  0
  7 53  1  0
  7 54  1  0
  8 55  1  0
  8 56  1  0
  9 57  1  0
  9 58  1  0
 10 59  1  0
 12 60  1  0
 14 61  1  0
 16 62  1  0
 19 63  1  0
 20 40  1  0
 21 64  1  0
 21 65  1  0
 22 41  1  0
 23 66  1  0
 23 67  1  0
 24 68  1  0
 24 69  1  0
 25 70  1  0
 25 71  1  0
 27 72  1  0
 28 73  1  0
 29 74  1  0
 31 75  1  0
 32 76  1  0
 33 77  1  0
 33 78  1  0
 33 79  1  0
 34 80  1  0
 34 81  1  0
 34 82  1  0
 35 83  1  0
 36 84  1  0
 36 85  1  0
 38 86  1  0
 38 87  1  0
 38 88  1  0
M  CHG  1  24   1
M  END
>  <LF dG>
-10.566

>  <LF VSscore>
-12.899

>  <LF Rank Score>
-11.319

>  <LF LE>
-0.278

>  <Favorite_cresset>
false

>  <Protein_cresset>
BACE_9_P

>  <MW_cresset>
524.8

>  <#Atoms_cresset>
38

>  <SlogP_cresset>
6.4

>  <TPSA_cresset>
87.2

>  <Flexibility_cresset>
15

>  <#RB_cresset>
9

>  <Rof5_cresset>
2

>  <Filename_cresset>
Bace9.smi

>  <Preferred Pose_cresset>
true

>  <_cresset_fieldpoints>
    -5      -6.158676      -2.799510      28.935249     -6.9015
    -5      -5.437676      -2.892510      28.028250     -6.7535
    -5      -2.262676      -6.390510      28.843250     -4.4775
    -5      -9.812675      -4.089510      29.209249     -3.9740
    -5       1.426324      -1.332510      26.839249     -7.8480
    -5      -5.849676      -3.896510      35.574249     -5.3725
    -5     -12.464676      -0.311510      32.644249     -4.1065
    -6      -2.523676      -2.207510      34.038250     10.2135
    -6      -7.850676      -5.733510      32.460251      3.1255
    -6      -6.140676      -7.765510      34.132248      2.2415
    -6       0.508324     -10.346510      33.555248      2.7685
    -6      -3.797676     -10.318510      32.443249      2.0235
    -6      -1.002676      -3.605510      33.199249     11.1085
    -6       2.045324      -5.912510      26.312250      2.5405
    -6       0.599324      -3.997510      32.711250     10.5480
    -6      -3.241676      -2.474510      23.837250      2.9755
    -6      -8.767675       1.508490      29.468250      3.0660
    -6     -11.099676       0.712490      27.733250      2.6585
    -6     -14.955676      -3.370510      29.194250      2.8110
    -6      -9.253675      -4.399510      34.339249      4.0065
    -7      -3.744676     -10.307509      31.996250     -1.6785
    -7      -6.130676      -7.796510      34.129250     -1.9530
    -7      -6.348676      -4.473510      35.557251     -2.0635
    -7      -0.193676     -10.644510      31.990250     -1.8465
    -7      -0.504676      -6.862510      35.441250     -2.0165
    -7       3.942324      -7.704510      33.341251     -1.5480
    -7       0.415324      -3.770510      33.100250     -2.5770
    -7      -1.443676      -4.044510      34.041248     -3.0400
    -7       3.340324      -3.465510      30.326250     -1.9535
    -7       2.996324      -4.460510      32.512249     -1.9770
    -7      -2.038676      -6.919510      29.152250     -4.2950
    -7       0.230324      -0.490510      28.504250     -2.2570
    -7      -4.252676      -2.086510      25.865250     -1.7650
    -7      -2.722676      -0.748510      31.883249     -2.3120
    -7      -4.519676      -0.403510      30.517250     -2.4655
    -7      -5.892676      -4.612510      29.193249     -2.8935
    -7     -12.545676      -0.253510      33.125248     -2.3690
    -7     -11.046677       0.606490      27.351250     -0.9985
    -7     -14.894676      -2.070510      32.431252     -2.2500
    -7     -12.346676      -7.070510      34.240250     -1.5345
    -7      -7.758676      -5.194510      31.061249     -3.1750
    -7      -9.188676      -4.792510      34.239250     -2.5790
    -7      -5.813676       0.637490      32.397251     -1.8755
    -7      -3.077676      -0.073510      27.797249     -1.8160
    -7      -0.332676       2.379490      24.567249     -0.6235
    -7      -1.894676      -2.782510      22.889250     -1.2170
    -8      -4.006676      -6.431510      32.437248      6.1115
    -8      -2.179676      -6.871510      32.397251      6.0495
    -8       0.422324      -7.399510      31.772249      5.8675
    -8      -0.371676      -7.492510      32.245251      5.8385
    -8       1.471324      -7.250510      31.280251      5.7940
    -8      -0.966676      -3.666510      28.778250      7.0520
    -8      -5.815676      -3.478510      32.524250      4.6400
    -8     -12.486676      -3.802510      31.696249      6.0910
    -8     -11.006676      -2.120510      30.954250      7.2265
    -8     -11.644676      -3.215510      31.799250      5.8395
    -8      -5.204676      -4.204510      32.741249      4.6750
    -8     -12.515676      -3.960510      32.456249      6.0675
    -8      -1.551676      -0.187510      25.076250      2.5535

$$$$
