Bace11:1_D
  xed2sdf_05210316543D
 
 81 83  0  0  1  0  0  0  0  0999 V2000
   -0.6188   -9.2606   32.4322 C   0  0  0  0  0  0  0  0  0  0  0  0
   -0.1518   -8.0096   31.6602 C   0  0  0  0  0  0  0  0  0  0  0  0
   -1.0418   -6.8366   32.0472 C   0  0  0  0  0  0  0  0  0  0  0  0
   -0.7058   -6.0296   32.9032 O   0  0  0  0  0  0  0  0  0  0  0  0
   -2.2058   -6.7846   31.3702 N   0  0  0  0  0  0  0  0  0  0  0  0
   -3.2158   -5.7716   31.7342 C   0  0  0  0  0  0  0  0  0  0  0  0
   -4.1198   -5.2616   30.5772 C   0  0  0  0  0  0  0  0  0  0  0  0
   -3.7068   -3.9116   30.0042 C   0  0  0  0  0  0  0  0  0  0  0  0
   -4.0478   -2.7236   30.6142 C   0  0  0  0  0  0  0  0  0  0  0  0
   -3.6128   -1.5246   30.0912 C   0  0  0  0  0  0  0  0  0  0  0  0
   -2.8138   -1.5036   28.9712 C   0  0  0  0  0  0  0  0  0  0  0  0
   -2.4528   -2.6856   28.3542 C   0  0  0  0  0  0  0  0  0  0  0  0
   -2.9478   -3.8766   28.8602 C   0  0  0  0  0  0  0  0  0  0  0  0
   -1.6298   -2.6746   27.2932 O   0  0  0  0  0  0  0  0  0  0  0  0
   -0.2788   -3.1926   27.4612 C   0  0  0  0  0  0  0  0  0  0  0  0
   -0.2668   -4.6476   27.9702 C   0  0  0  0  0  0  0  0  0  0  0  0
    1.0792   -5.3366   28.2452 C   0  0  0  0  0  0  0  0  0  0  0  0
    0.6722   -6.5676   29.0832 C   0  0  0  0  0  0  0  0  0  0  0  0
    1.8052   -7.5066   29.5292 C   0  0  0  0  0  0  0  0  0  0  0  0
    2.1912   -7.3246   30.9852 C   0  0  0  0  0  0  0  0  0  0  0  0
    3.3122   -6.9086   31.2452 O   0  0  0  0  0  0  0  0  0  0  0  0
    1.2772   -7.6846   31.9222 N   0  0  0  0  0  0  0  0  0  0  0  0
    1.7112   -7.7176   33.3302 C   0  0  0  0  0  0  0  0  0  0  0  0
   -4.0368   -6.3996   32.8852 C   0  0  0  0  0  0  0  0  0  0  0  0
   -4.5978   -5.3346   33.8592 C   0  0  0  0  0  0  0  0  0  0  0  0
   -5.2508   -4.1876   33.1292 N   0  3  0  0  0  0  0  0  0  0  0  0
   -6.2718   -3.4046   33.9182 C   0  0  0  0  0  0  0  0  0  0  0  0
   -7.1638   -2.5306   33.0452 C   0  0  0  0  0  0  0  0  0  0  0  0
   -8.4868   -2.8616   32.8532 C   0  0  0  0  0  0  0  0  0  0  0  0
   -9.2948   -2.0686   32.0722 C   0  0  0  0  0  0  0  0  0  0  0  0
   -8.7828   -0.9356   31.4842 C   0  0  0  0  0  0  0  0  0  0  0  0
   -7.4628   -0.5896   31.6712 C   0  0  0  0  0  0  0  0  0  0  0  0
   -6.6588   -1.3936   32.4532 C   0  0  0  0  0  0  0  0  0  0  0  0
   -6.9398    0.6804   31.0132 C   0  0  0  0  0  0  0  0  0  0  0  0
   -5.4728    1.0024   31.3502 C   0  0  0  0  0  0  0  0  0  0  0  0
   -7.8018    1.9114   31.3422 C   0  0  0  0  0  0  0  0  0  0  0  0
   -5.0888   -7.2286   32.3672 O   0  0  0  0  0  0  0  0  0  0  0  0
   -0.2278   -8.1966   30.6812 H   0  0  0  0  0  0  0  0  0  0  0  0
   -2.7458   -4.9316   32.0062 H   0  0  0  0  0  0  0  0  0  0  0  0
   -3.4088   -6.9726   33.4122 H   0  0  0  0  0  0  0  0  0  0  0  0
   -1.0598   -9.8906   31.7932 H   0  0  0  0  0  0  0  0  0  0  0  0
    0.1682   -9.7076   32.8572 H   0  0  0  0  0  0  0  0  0  0  0  0
   -1.2668   -8.9936   33.1452 H   0  0  0  0  0  0  0  0  0  0  0  0
   -2.3848   -7.3716   30.7392 H   0  0  0  0  0  0  0  0  0  0  0  0
   -5.0568   -5.1856   30.9192 H   0  0  0  0  0  0  0  0  0  0  0  0
   -4.0338   -5.9246   29.8332 H   0  0  0  0  0  0  0  0  0  0  0  0
   -4.6118   -2.7316   31.4392 H   0  0  0  0  0  0  0  0  0  0  0  0
   -3.8798   -0.6656   30.5282 H   0  0  0  0  0  0  0  0  0  0  0  0
   -2.4948   -0.6306   28.6022 H   0  0  0  0  0  0  0  0  0  0  0  0
   -2.7488   -4.7306   28.3812 H   0  0  0  0  0  0  0  0  0  0  0  0
    0.2092   -2.6166   28.1172 H   0  0  0  0  0  0  0  0  0  0  0  0
    0.1662   -3.1806   26.5652 H   0  0  0  0  0  0  0  0  0  0  0  0
   -0.7468   -5.1996   27.2892 H   0  0  0  0  0  0  0  0  0  0  0  0
   -0.6888   -4.5846   28.8742 H   0  0  0  0  0  0  0  0  0  0  0  0
    1.6952   -4.7376   28.7562 H   0  0  0  0  0  0  0  0  0  0  0  0
    1.5782   -5.5756   27.4122 H   0  0  0  0  0  0  0  0  0  0  0  0
    0.0262   -7.1046   28.5412 H   0  0  0  0  0  0  0  0  0  0  0  0
    0.2942   -6.1936   29.9312 H   0  0  0  0  0  0  0  0  0  0  0  0
    2.6082   -7.3306   28.9602 H   0  0  0  0  0  0  0  0  0  0  0  0
    1.4742   -8.4446   29.4252 H   0  0  0  0  0  0  0  0  0  0  0  0
    2.6742   -7.4536   33.3802 H   0  0  0  0  0  0  0  0  0  0  0  0
    1.1592   -7.0826   33.8692 H   0  0  0  0  0  0  0  0  0  0  0  0
    1.5952   -8.6416   33.6962 H   0  0  0  0  0  0  0  0  0  0  0  0
   -3.8488   -4.9796   34.4192 H   0  0  0  0  0  0  0  0  0  0  0  0
   -5.2948   -5.7736   34.4272 H   0  0  0  0  0  0  0  0  0  0  0  0
   -5.6338   -4.4946   32.3632 H   0  0  0  0  0  0  0  0  0  0  0  0
   -4.6098   -3.6126   32.8322 H   0  0  0  0  0  0  0  0  0  0  0  0
   -5.7908   -2.8196   34.5712 H   0  0  0  0  0  0  0  0  0  0  0  0
   -6.8648   -4.0666   34.3762 H   0  0  0  0  0  0  0  0  0  0  0  0
   -8.8618   -3.6826   33.2842 H   0  0  0  0  0  0  0  0  0  0  0  0
  -10.2538   -2.3156   31.9332 H   0  0  0  0  0  0  0  0  0  0  0  0
   -9.3718   -0.3606   30.9172 H   0  0  0  0  0  0  0  0  0  0  0  0
   -5.6998   -1.1486   32.5922 H   0  0  0  0  0  0  0  0  0  0  0  0
   -6.9948    0.4834   30.0342 H   0  0  0  0  0  0  0  0  0  0  0  0
   -5.4178    1.9354   31.7052 H   0  0  0  0  0  0  0  0  0  0  0  0
   -5.1358    0.3594   32.0382 H   0  0  0  0  0  0  0  0  0  0  0  0
   -4.9128    0.9204   30.5262 H   0  0  0  0  0  0  0  0  0  0  0  0
   -7.2118    2.6364   31.6992 H   0  0  0  0  0  0  0  0  0  0  0  0
   -8.2648    2.2304   30.5162 H   0  0  0  0  0  0  0  0  0  0  0  0
   -8.4888    1.6674   32.0272 H   0  0  0  0  0  0  0  0  0  0  0  0
   -5.4628   -7.8306   33.0812 H   0  0  0  0  0  0  0  0  0  0  0  0
  1  2  1  0
  2  3  1  0
  2 22  1  0
  3  4  2  0
  3  5  1  0
  5  6  1  0
  6  7  1  0
  6 24  1  0
  7  8  1  0
  8  9  2  0
  8 13  1  0
  9 10  1  0
 10 11  2  0
 11 12  1  0
 12 13  2  0
 12 14  1  0
 14 15  1  0
 15 16  1  0
 16 17  1  0
 17 18  1  0
 18 19  1  0
 19 20  1  0
 20 21  2  0
 20 22  1  0
 22 23  1  0
 24 25  1  0
 24 37  1  0
 25 26  1  0
 26 27  1  0
 27 28  1  0
 28 29  2  0
 28 33  1  0
 29 30  1  0
 30 31  2  0
 31 32  1  0
 32 33  2  0
 32 34  1  0
 34 35  1  0
 34 36  1  0
  1 41  1  0
  1 42  1  0
  1 43  1  0
  2 38  1  0
  5 44  1  0
  6 39  1  0
  7 45  1  0
  7 46  1  0
  9 47  1  0
 10 48  1  0
 11 49  1  0
 13 50  1  0
 15 51  1  0
 15 52  1  0
 16 53  1  0
 16 54  1  0
 17 55  1  0
 17 56  1  0
 18 57  1  0
 18 58  1  0
 19 59  1  0
 19 60  1  0
 23 61  1  0
 23 62  1  0
 23 63  1  0
 24 40  1  0
 25 64  1  0
 25 65  1  0
 26 66  1  0
 26 67  1  0
 27 68  1  0
 27 69  1  0
 29 70  1  0
 30 71  1  0
 31 72  1  0
 33 73  1  0
 34 74  1  0
 35 75  1  0
 35 76  1  0
 35 77  1  0
 36 78  1  0
 36 79  1  0
 36 80  1  0
 37 81  1  0
M  CHG  1  26   1
M  END
>  <LF dG>
-8.948

>  <LF VSscore>
-11.109

>  <LF Rank Score>
-8.776

>  <LF LE>
-0.242

>  <Favorite_cresset>
false

>  <Protein_cresset>
BACE_11_P

>  <MW_cresset>
510.7

>  <#Atoms_cresset>
37

>  <SlogP_cresset>
4.2

>  <TPSA_cresset>
95.5

>  <Flexibility_cresset>
13

>  <#RB_cresset>
7

>  <Rof5_cresset>
1

>  <Filename_cresset>
Bace11.smi

>  <Preferred Pose_cresset>
true

>  <_cresset_fieldpoints>
    -5       1.005213      -5.140642      32.445244    -10.7045
    -5       4.269214      -5.920642      32.406242    -10.5990
    -5      -6.752787      -2.505642      29.385242     -5.4840
    -5      -2.898787      -2.125642      25.440243     -4.4670
    -5       4.670214      -6.246642      30.336243    -10.6975
    -5      -8.649786       0.079358      34.418243     -3.3670
    -5      -6.155787      -7.391643      30.845242     -2.2150
    -6      -1.917786      -8.687642      29.301243     11.8160
    -6      -3.785787      -1.679642      33.555241      6.9365
    -6      -2.678787       1.520358      29.903242      3.4200
    -6     -10.592787       1.098358      29.840242      3.0955
    -6      -5.502787       3.749358      29.841242      2.2855
    -6      -5.517787      -8.282642      34.759243     10.6355
    -7       2.300213     -10.311642      31.302242     -2.3845
    -7      -1.359787      -6.992642      34.974243     -2.8390
    -7      -2.450787      -7.159642      28.270243     -3.4630
    -7      -1.921787      -8.664642      28.752243     -2.3765
    -7      -3.516787      -1.478642      33.597244     -3.3105
    -7      -0.511786       0.002358      27.037243     -1.6570
    -7      -2.704787      -4.744642      25.622242     -2.0980
    -7      -2.261786       1.396358      30.880243     -1.6705
    -7       0.531214      -5.370642      24.895243     -1.5745
    -7       0.049213      -7.377642      25.891243     -1.7105
    -7       2.946213      -2.977642      27.047243     -1.4725
    -7      -0.437787      -4.018642      31.265242     -4.6390
    -7      -5.389787      -4.370642      36.869244     -1.3975
    -7      -6.832787       1.241358      34.432243     -2.4310
    -7      -7.348786      -6.166642      32.210243     -3.2290
    -7      -8.310787       0.652358      34.576241     -2.3960
    -7      -7.071787      -3.701642      29.866241     -3.6975
    -7     -11.044786       1.472358      31.117243     -1.5535
    -7      -9.183786       0.564358      28.526241     -1.8425
    -7      -3.784786      -9.248642      31.630241     -2.6130
    -8      -0.791786      -8.475642      32.057243      4.5530
    -8       1.266213      -6.410643      28.913242      5.5965
    -8       0.348213      -5.560642      28.503242      5.9405
    -8      -6.457787      -0.018642      31.648243      6.1145
    -8      -7.966786      -1.722642      32.262241      7.2435
    -8      -3.279787      -2.713642      29.516243      7.1190
    -8      -6.865787       0.754358      31.447243      6.0765
    -8       0.335213      -4.428642      27.948242      5.4550
    -8       1.879213      -7.831642      34.125244      2.5895
    -8      -3.730787      -5.481642      32.806244      4.6185
    -8      -5.413787      -4.319642      33.751244      3.0510
    -8      -7.812787       0.419358      31.362242      5.9610

$$$$
