Bace13:1_D
  xed2sdf_05210316543D
 
 77 80  0  0  1  0  0  0  0  0999 V2000
   -0.9698   -0.8639   25.6278 C   0  0  0  0  0  0  0  0  0  0  0  0
   -1.6708   -2.1189   25.5988 O   0  0  0  0  0  0  0  0  0  0  0  0
   -0.8288   -3.2279   25.9678 C   0  0  0  0  0  0  0  0  0  0  0  0
   -0.8798   -3.4629   27.4678 C   0  0  0  0  0  0  0  0  0  0  0  0
   -2.0808   -3.4259   28.1418 C   0  0  0  0  0  0  0  0  0  0  0  0
   -2.1368   -3.6439   29.5118 C   0  0  0  0  0  0  0  0  0  0  0  0
   -0.9498   -3.8859   30.1828 C   0  0  0  0  0  0  0  0  0  0  0  0
    0.2562   -3.9469   29.5168 C   0  0  0  0  0  0  0  0  0  0  0  0
    0.2852   -3.7309   28.1498 C   0  0  0  0  0  0  0  0  0  0  0  0
    1.4242   -4.2369   30.2318 N   0  0  0  0  0  0  0  0  0  0  0  0
    2.3762   -5.2409   29.7218 C   0  0  0  0  0  0  0  0  0  0  0  0
    2.7812   -6.2989   30.7728 C   0  0  0  0  0  0  0  0  0  0  0  0
    1.7452   -7.4299   30.9488 C   0  0  0  0  0  0  0  0  0  0  0  0
    0.4512   -6.9479   31.6298 C   0  0  0  0  0  0  0  0  0  0  0  0
   -0.4718   -8.0429   31.8048 O   0  0  0  0  0  0  0  0  0  0  0  0
   -1.7018   -7.7959   32.2788 C   0  0  0  0  0  0  0  0  0  0  0  0
   -2.5778   -8.8579   32.4068 C   0  0  0  0  0  0  0  0  0  0  0  0
   -3.8518   -8.6639   32.8818 C   0  0  0  0  0  0  0  0  0  0  0  0
   -4.2688   -7.4029   33.2358 C   0  0  0  0  0  0  0  0  0  0  0  0
   -3.4138   -6.3289   33.1178 C   0  0  0  0  0  0  0  0  0  0  0  0
   -2.1358   -6.5279   32.6428 C   0  0  0  0  0  0  0  0  0  0  0  0
   -3.9108   -4.9479   33.5278 C   0  0  0  0  0  0  0  0  0  0  0  0
   -4.5378   -4.0869   32.4008 C   0  0  0  0  0  0  0  0  0  0  0  0
   -3.4188   -3.5669   31.5948 N   0  0  0  0  0  0  0  0  0  0  0  0
   -3.4278   -3.6759   30.2478 C   0  0  0  0  0  0  0  0  0  0  0  0
   -4.4488   -3.8469   29.5838 O   0  0  0  0  0  0  0  0  0  0  0  0
   -5.4638   -3.0109   33.0138 C   0  0  0  0  0  0  0  0  0  0  0  0
   -6.1988   -2.1779   31.9368 C   0  0  0  0  0  0  0  0  0  0  0  0
   -7.2228   -3.0459   31.1648 C   0  0  0  0  0  0  0  0  0  0  0  0
   -8.5398   -2.4609   31.2208 O   0  0  0  0  0  0  0  0  0  0  0  0
   -8.5878   -1.1289   30.6738 C   0  0  0  0  0  0  0  0  0  0  0  0
   -7.7188   -0.1869   31.5408 C   0  0  0  0  0  0  0  0  0  0  0  0
   -6.9558   -1.0229   32.5358 N   0  3  0  0  0  0  0  0  0  0  0  0
  -10.0608   -0.6779   30.5888 C   0  0  0  0  0  0  0  0  0  0  0  0
  -10.9838   -1.7779   30.4708 O   0  0  0  0  0  0  0  0  0  0  0  0
  -11.1148   -2.2659   29.1238 C   0  0  0  0  0  0  0  0  0  0  0  0
   -6.4368   -3.6609   33.8478 O   0  0  0  0  0  0  0  0  0  0  0  0
   -5.1338   -4.6089   31.7908 H   0  0  0  0  0  0  0  0  0  0  0  0
   -4.8928   -2.3819   33.5418 H   0  0  0  0  0  0  0  0  0  0  0  0
   -5.4878   -1.8359   31.3218 H   0  0  0  0  0  0  0  0  0  0  0  0
   -8.2118   -1.1039   29.7478 H   0  0  0  0  0  0  0  0  0  0  0  0
   -0.0228   -1.0269   25.9048 H   0  0  0  0  0  0  0  0  0  0  0  0
   -0.9868   -0.4449   24.7198 H   0  0  0  0  0  0  0  0  0  0  0  0
   -1.4108   -0.2469   26.2798 H   0  0  0  0  0  0  0  0  0  0  0  0
    0.1132   -3.0319   25.6958 H   0  0  0  0  0  0  0  0  0  0  0  0
   -1.1578   -4.0499   25.5038 H   0  0  0  0  0  0  0  0  0  0  0  0
   -2.9238   -3.2389   27.6368 H   0  0  0  0  0  0  0  0  0  0  0  0
   -0.9678   -4.0189   31.1738 H   0  0  0  0  0  0  0  0  0  0  0  0
    1.1542   -3.7689   27.6568 H   0  0  0  0  0  0  0  0  0  0  0  0
    1.3912   -4.1329   31.1058 H   0  0  0  0  0  0  0  0  0  0  0  0
    3.2002   -4.7669   29.4108 H   0  0  0  0  0  0  0  0  0  0  0  0
    1.9182   -5.7279   28.9778 H   0  0  0  0  0  0  0  0  0  0  0  0
    2.9032   -5.8399   31.6528 H   0  0  0  0  0  0  0  0  0  0  0  0
    3.6252   -6.7249   30.4468 H   0  0  0  0  0  0  0  0  0  0  0  0
    2.1522   -8.1549   31.5048 H   0  0  0  0  0  0  0  0  0  0  0  0
    1.5012   -7.7609   30.0368 H   0  0  0  0  0  0  0  0  0  0  0  0
    0.0232   -6.2429   31.0638 H   0  0  0  0  0  0  0  0  0  0  0  0
    0.6802   -6.5749   32.5288 H   0  0  0  0  0  0  0  0  0  0  0  0
   -2.2798   -9.7779   32.1508 H   0  0  0  0  0  0  0  0  0  0  0  0
   -4.4758   -9.4399   32.9698 H   0  0  0  0  0  0  0  0  0  0  0  0
   -5.1978   -7.2639   33.5808 H   0  0  0  0  0  0  0  0  0  0  0  0
   -1.5128   -5.7499   32.5588 H   0  0  0  0  0  0  0  0  0  0  0  0
   -3.1358   -4.4429   33.9068 H   0  0  0  0  0  0  0  0  0  0  0  0
   -4.6498   -5.1119   34.1818 H   0  0  0  0  0  0  0  0  0  0  0  0
   -2.7218   -3.2189   32.0018 H   0  0  0  0  0  0  0  0  0  0  0  0
   -7.2508   -3.9589   31.5698 H   0  0  0  0  0  0  0  0  0  0  0  0
   -6.9388   -3.0979   30.2078 H   0  0  0  0  0  0  0  0  0  0  0  0
   -8.3028    0.4661   32.0218 H   0  0  0  0  0  0  0  0  0  0  0  0
   -7.0808    0.3211   30.9608 H   0  0  0  0  0  0  0  0  0  0  0  0
   -7.5258   -1.3279   33.1758 H   0  0  0  0  0  0  0  0  0  0  0  0
   -6.3708   -0.4899   32.9868 H   0  0  0  0  0  0  0  0  0  0  0  0
  -10.1678   -0.0829   29.7928 H   0  0  0  0  0  0  0  0  0  0  0  0
  -10.2758   -0.1999   31.4418 H   0  0  0  0  0  0  0  0  0  0  0  0
  -10.5228   -1.7279   28.5238 H   0  0  0  0  0  0  0  0  0  0  0  0
  -10.8478   -3.2289   29.0858 H   0  0  0  0  0  0  0  0  0  0  0  0
  -12.0658   -2.1799   28.8258 H   0  0  0  0  0  0  0  0  0  0  0  0
   -6.0298   -3.9659   34.7158 H   0  0  0  0  0  0  0  0  0  0  0  0
  1  2  1  0
  2  3  1  0
  3  4  1  0
  4  5  2  0
  4  9  1  0
  5  6  1  0
  6  7  2  0
  6 25  1  0
  7  8  1  0
  8  9  2  0
  8 10  1  0
 10 11  1  0
 11 12  1  0
 12 13  1  0
 13 14  1  0
 14 15  1  0
 15 16  1  0
 16 17  2  0
 16 21  1  0
 17 18  1  0
 18 19  2  0
 19 20  1  0
 20 21  2  0
 20 22  1  0
 22 23  1  0
 23 24  1  0
 23 27  1  0
 24 25  1  0
 25 26  2  0
 27 28  1  0
 27 37  1  0
 28 29  1  0
 28 33  1  0
 29 30  1  0
 30 31  1  0
 31 32  1  0
 31 34  1  0
 32 33  1  0
 34 35  1  0
 35 36  1  0
  1 42  1  0
  1 43  1  0
  1 44  1  0
  3 45  1  0
  3 46  1  0
  5 47  1  0
  7 48  1  0
  9 49  1  0
 10 50  1  0
 11 51  1  0
 11 52  1  0
 12 53  1  0
 12 54  1  0
 13 55  1  0
 13 56  1  0
 14 57  1  0
 14 58  1  0
 17 59  1  0
 18 60  1  0
 19 61  1  0
 21 62  1  0
 22 63  1  0
 22 64  1  0
 23 38  1  0
 24 65  1  0
 27 39  1  0
 28 40  1  0
 29 66  1  0
 29 67  1  0
 31 41  1  0
 32 68  1  0
 32 69  1  0
 33 70  1  0
 33 71  1  0
 34 72  1  0
 34 73  1  0
 36 74  1  0
 36 75  1  0
 36 76  1  0
 37 77  1  0
M  CHG  1  33   1
M  END
>  <LF dG>
-10.022

>  <LF VSscore>
-12.687

>  <LF Rank Score>
-12.245

>  <LF LE>
-0.271

>  <Favorite_cresset>
false

>  <Protein_cresset>
BACE_13_P

>  <MW_cresset>
514.6

>  <#Atoms_cresset>
37

>  <SlogP_cresset>
2.5

>  <TPSA_cresset>
114.9

>  <Flexibility_cresset>
12

>  <#RB_cresset>
7

>  <Rof5_cresset>
1

>  <Filename_cresset>
Bace13.smi

>  <Preferred Pose_cresset>
true

>  <_cresset_fieldpoints>
    -5      -3.548765      -2.295887      25.250830     -7.1435
    -5     -10.242765      -3.245888      31.749830    -14.0855
    -5      -4.927765      -4.850888      27.986830     -9.4800
    -5      -1.888765      -8.701887      35.323830     -2.2025
    -5      -8.437765      -3.659888      33.560829     -9.2685
    -6      -0.949765      -3.509888      33.165829     14.8630
    -6       0.247235      -4.061888      32.890831     14.9610
    -6       2.448235      -3.004888      26.023830      5.3185
    -6      -4.431765     -11.709888      33.056831      2.0050
    -6      -4.716765      -3.410888      35.845829     11.0905
    -6      -8.378765       1.628112      29.151831      4.2450
    -7      -3.160765      -0.845888      31.270830     -2.8465
    -7       2.377235      -1.819888      26.531830     -1.8445
    -7      -0.534765      -0.458888      28.948830     -2.4360
    -7      -2.351765      -1.938888      34.060829     -2.0335
    -7      -1.250765      -6.975887      28.920830     -3.8830
    -7      -3.750765      -0.756888      29.952829     -2.5550
    -7      -4.065765      -1.930888      25.900829     -1.8890
    -7      -3.999765      -6.493888      29.830830     -3.7530
    -7       2.891235      -1.992887      29.817831     -1.8200
    -7       2.820235      -7.855887      27.733829     -1.5915
    -7       2.715235      -7.101888      34.103828     -1.6060
    -7       3.578235      -3.007888      31.674829     -1.6100
    -7       0.901235      -9.065887      34.009830     -1.9550
    -7      -0.023765      -4.078887      33.359829     -3.2385
    -7      -3.829765     -12.006887      32.255829     -0.9775
    -7      -7.223765      -5.829887      33.359829     -3.0250
    -7      -1.849765      -7.848887      35.773830     -1.9210
    -7      -4.393765      -3.096888      36.111832     -1.7390
    -7      -6.877765      -1.850888      35.550831     -1.8310
    -7     -10.367765      -3.537888      32.199829     -2.2875
    -7      -8.808765       0.016112      27.488831     -1.5625
    -7      -8.154765       0.583112      34.709831     -1.3515
    -7      -8.148766      -2.993887      27.916830     -1.9550
    -7      -8.210765       1.359112      28.562830     -1.5280
    -7      -5.176765      -1.567888      28.815830     -3.0670
    -7      -9.626764      -2.724888      33.332829     -2.4800
    -8      -0.477765      -0.153888      25.685829      2.5550
    -8      -0.934765      -3.683887      28.813829      7.0540
    -8       1.706235      -6.571887      30.930830      5.5865
    -8      -5.860765      -3.222888      31.822830      4.9305
    -8      -3.023765      -7.583888      32.772831      7.0700
    -8      -8.853765      -0.209888      30.866831      4.8020
    -8     -11.143764      -2.509888      28.286831      2.5380
    -8      -4.525765      -4.159888      33.281830      4.6860

$$$$
