Bace14:1_D
  xed2sdf_05210316543D
 
 86 90  0  0  1  0  0  0  0  0999 V2000
    1.1936   -8.2811   33.7007 C   0  0  0  0  0  0  0  0  0  0  0  0
    1.2456   -7.6461   32.3007 C   0  0  0  0  0  0  0  0  0  0  0  0
    2.0096   -6.3121   32.3927 C   0  0  0  0  0  0  0  0  0  0  0  0
   -0.1304   -7.5181   31.6607 C   0  0  0  0  0  0  0  0  0  0  0  0
   -0.4284   -8.1301   30.4617 C   0  0  0  0  0  0  0  0  0  0  0  0
   -1.6814   -8.0041   29.9087 C   0  0  0  0  0  0  0  0  0  0  0  0
   -2.6434   -7.2621   30.5537 C   0  0  0  0  0  0  0  0  0  0  0  0
   -2.3594   -6.6381   31.7497 C   0  0  0  0  0  0  0  0  0  0  0  0
   -1.1014   -6.7721   32.2957 C   0  0  0  0  0  0  0  0  0  0  0  0
   -3.4304   -5.8291   32.4747 C   0  0  0  0  0  0  0  0  0  0  0  0
   -3.4064   -5.9301   34.0137 C   0  0  0  0  0  0  0  0  0  0  0  0
   -4.5724   -6.5431   33.2297 C   0  0  0  0  0  0  0  0  0  0  0  0
   -3.6414   -4.4181   31.9727 N   0  3  0  0  0  0  0  0  0  0  0  0
   -5.0504   -3.9861   31.6337 C   0  0  0  0  0  0  0  0  0  0  0  0
   -5.1574   -2.4491   31.7087 C   0  0  0  0  0  0  0  0  0  0  0  0
   -6.5954   -1.8681   31.8387 C   0  0  0  0  0  0  0  0  0  0  0  0
   -6.6424   -0.4241   32.4067 C   0  0  0  0  0  0  0  0  0  0  0  0
   -6.9104    0.6929   31.4047 C   0  0  0  0  0  0  0  0  0  0  0  0
   -5.9034    1.2869   30.6737 C   0  0  0  0  0  0  0  0  0  0  0  0
   -6.1934    2.2729   29.7577 C   0  0  0  0  0  0  0  0  0  0  0  0
   -7.4954    2.6639   29.5537 C   0  0  0  0  0  0  0  0  0  0  0  0
   -8.5204    2.0799   30.2787 C   0  0  0  0  0  0  0  0  0  0  0  0
   -8.2054    1.1199   31.2187 C   0  0  0  0  0  0  0  0  0  0  0  0
   -9.8104    2.3879   30.0937 O   0  0  0  0  0  0  0  0  0  0  0  0
  -10.2114    2.9719   28.8357 C   0  0  0  0  0  0  0  0  0  0  0  0
  -11.6964    2.6849   28.5307 C   0  0  0  0  0  0  0  0  0  0  0  0
  -11.9204    1.2989   27.8807 C   0  0  0  0  0  0  0  0  0  0  0  0
  -12.0374    0.1459   28.8977 C   0  0  0  0  0  0  0  0  0  0  0  0
  -10.8054   -0.2671   29.5927 N   0  0  0  0  0  0  0  0  0  0  0  0
  -10.8304   -1.3471   30.4867 C   0  0  0  0  0  0  0  0  0  0  0  0
   -9.6704   -1.7411   31.1347 C   0  0  0  0  0  0  0  0  0  0  0  0
   -9.6464   -2.7941   32.0397 C   0  0  0  0  0  0  0  0  0  0  0  0
  -10.8494   -3.4521   32.2557 C   0  0  0  0  0  0  0  0  0  0  0  0
  -12.0324   -3.0911   31.6287 C   0  0  0  0  0  0  0  0  0  0  0  0
  -12.0074   -2.0251   30.7447 C   0  0  0  0  0  0  0  0  0  0  0  0
  -13.2874   -3.8131   31.9017 C   0  0  0  0  0  0  0  0  0  0  0  0
  -14.3124   -3.4621   31.3477 O   0  0  0  0  0  0  0  0  0  0  0  0
  -13.3024   -4.9781   32.8637 C   0  0  0  0  0  0  0  0  0  0  0  0
   -8.4664   -3.2641   32.8377 C   0  0  0  0  0  0  0  0  0  0  0  0
   -8.7234   -4.1971   33.5967 O   0  0  0  0  0  0  0  0  0  0  0  0
   -7.2184   -2.7321   32.8627 N   0  0  0  0  0  0  0  0  0  0  0  0
   -4.4624   -1.9121   30.5727 O   0  0  0  0  0  0  0  0  0  0  0  0
   -4.7354   -2.1661   32.5707 H   0  0  0  0  0  0  0  0  0  0  0  0
   -7.0304   -1.8421   30.9387 H   0  0  0  0  0  0  0  0  0  0  0  0
    0.3106   -8.7361   33.8197 H   0  0  0  0  0  0  0  0  0  0  0  0
    1.9316   -8.9481   33.7977 H   0  0  0  0  0  0  0  0  0  0  0  0
    1.3026   -7.5711   34.3967 H   0  0  0  0  0  0  0  0  0  0  0  0
    1.7446   -8.2521   31.6807 H   0  0  0  0  0  0  0  0  0  0  0  0
    1.4426   -5.5861   32.0037 H   0  0  0  0  0  0  0  0  0  0  0  0
    2.2126   -6.1051   33.3497 H   0  0  0  0  0  0  0  0  0  0  0  0
    2.8676   -6.3801   31.8847 H   0  0  0  0  0  0  0  0  0  0  0  0
    0.2706   -8.6691   29.9917 H   0  0  0  0  0  0  0  0  0  0  0  0
   -1.8924   -8.4501   29.0397 H   0  0  0  0  0  0  0  0  0  0  0  0
   -3.5554   -7.1761   30.1527 H   0  0  0  0  0  0  0  0  0  0  0  0
   -0.8894   -6.3231   33.1637 H   0  0  0  0  0  0  0  0  0  0  0  0
   -3.5514   -5.1141   34.5727 H   0  0  0  0  0  0  0  0  0  0  0  0
   -2.7534   -6.2731   34.6887 H   0  0  0  0  0  0  0  0  0  0  0  0
   -4.6704   -7.5361   33.1687 H   0  0  0  0  0  0  0  0  0  0  0  0
   -5.5674   -6.4501   33.2567 H   0  0  0  0  0  0  0  0  0  0  0  0
   -3.1284   -4.3161   31.2267 H   0  0  0  0  0  0  0  0  0  0  0  0
   -3.2614   -3.8231   32.5477 H   0  0  0  0  0  0  0  0  0  0  0  0
   -5.6904   -4.3991   32.2807 H   0  0  0  0  0  0  0  0  0  0  0  0
   -5.2734   -4.2861   30.7057 H   0  0  0  0  0  0  0  0  0  0  0  0
   -5.7624   -0.2391   32.8437 H   0  0  0  0  0  0  0  0  0  0  0  0
   -7.4234   -0.4111   33.0317 H   0  0  0  0  0  0  0  0  0  0  0  0
   -4.9554    0.9999   30.8107 H   0  0  0  0  0  0  0  0  0  0  0  0
   -5.4564    2.7049   29.2387 H   0  0  0  0  0  0  0  0  0  0  0  0
   -7.7034    3.3729   28.8797 H   0  0  0  0  0  0  0  0  0  0  0  0
   -8.9344    0.7249   31.7767 H   0  0  0  0  0  0  0  0  0  0  0  0
   -9.6464    2.5909   28.1037 H   0  0  0  0  0  0  0  0  0  0  0  0
  -10.0884    3.9629   28.8957 H   0  0  0  0  0  0  0  0  0  0  0  0
  -12.0384    3.3909   27.9097 H   0  0  0  0  0  0  0  0  0  0  0  0
  -12.1884    2.6899   29.4017 H   0  0  0  0  0  0  0  0  0  0  0  0
  -11.1514    1.1079   27.2717 H   0  0  0  0  0  0  0  0  0  0  0  0
  -12.7914    1.3439   27.3927 H   0  0  0  0  0  0  0  0  0  0  0  0
  -12.3924   -0.6521   28.4107 H   0  0  0  0  0  0  0  0  0  0  0  0
  -12.6334    0.4979   29.6197 H   0  0  0  0  0  0  0  0  0  0  0  0
  -10.0434   -0.0981   29.1857 H   0  0  0  0  0  0  0  0  0  0  0  0
   -8.8204   -1.2501   30.9427 H   0  0  0  0  0  0  0  0  0  0  0  0
  -10.8644   -4.2231   32.8927 H   0  0  0  0  0  0  0  0  0  0  0  0
  -12.8504   -1.7421   30.2867 H   0  0  0  0  0  0  0  0  0  0  0  0
  -14.2334   -5.3381   32.9237 H   0  0  0  0  0  0  0  0  0  0  0  0
  -12.6854   -5.6931   32.5377 H   0  0  0  0  0  0  0  0  0  0  0  0
  -12.9994   -4.6721   33.7667 H   0  0  0  0  0  0  0  0  0  0  0  0
   -6.7234   -2.9491   33.5567 H   0  0  0  0  0  0  0  0  0  0  0  0
   -3.5874   -1.4911   30.8387 H   0  0  0  0  0  0  0  0  0  0  0  0
  1  2  1  0
  2  3  1  0
  2  4  1  0
  4  5  2  0
  4  9  1  0
  5  6  1  0
  6  7  2  0
  7  8  1  0
  8  9  2  0
  8 10  1  0
 10 11  1  0
 10 12  1  0
 10 13  1  0
 11 12  1  0
 13 14  1  0
 14 15  1  0
 15 16  1  0
 15 42  1  0
 16 17  1  0
 16 41  1  0
 17 18  1  0
 18 19  2  0
 18 23  1  0
 19 20  1  0
 20 21  2  0
 21 22  1  0
 22 23  2  0
 22 24  1  0
 24 25  1  0
 25 26  1  0
 26 27  1  0
 27 28  1  0
 28 29  1  0
 29 30  1  0
 30 31  2  0
 30 35  1  0
 31 32  1  0
 32 33  2  0
 32 39  1  0
 33 34  1  0
 34 35  2  0
 34 36  1  0
 36 37  2  0
 36 38  1  0
 39 40  2  0
 39 41  1  0
  1 45  1  0
  1 46  1  0
  1 47  1  0
  2 48  1  0
  3 49  1  0
  3 50  1  0
  3 51  1  0
  5 52  1  0
  6 53  1  0
  7 54  1  0
  9 55  1  0
 11 56  1  0
 11 57  1  0
 12 58  1  0
 12 59  1  0
 13 60  1  0
 13 61  1  0
 14 62  1  0
 14 63  1  0
 15 43  1  0
 16 44  1  0
 17 64  1  0
 17 65  1  0
 19 66  1  0
 20 67  1  0
 21 68  1  0
 23 69  1  0
 25 70  1  0
 25 71  1  0
 26 72  1  0
 26 73  1  0
 27 74  1  0
 27 75  1  0
 28 76  1  0
 28 77  1  0
 29 78  1  0
 31 79  1  0
 33 80  1  0
 35 81  1  0
 38 82  1  0
 38 83  1  0
 38 84  1  0
 41 85  1  0
 42 86  1  0
M  CHG  1  13   1
M  END
>  <LF dG>
-12.129

>  <LF VSscore>
-14.185

>  <LF Rank Score>
-11.917

>  <LF LE>
-0.289

>  <Favorite_cresset>
false

>  <Protein_cresset>
BACE_14_P

>  <MW_cresset>
570.7

>  <#Atoms_cresset>
42

>  <SlogP_cresset>
6

>  <TPSA_cresset>
104.3

>  <Flexibility_cresset>
10.2

>  <#RB_cresset>
8

>  <Rof5_cresset>
2

>  <Filename_cresset>
Bace14.smi

>  <Preferred Pose_cresset>
true

>  <_cresset_fieldpoints>
    -5      -2.202435      -9.683109      32.617661     -3.8735
    -5      -0.151435      -5.242109      29.607660     -2.3340
    -5      -7.974435      -5.538109      34.747662     -5.6095
    -5     -15.477434      -2.349109      30.254660     -7.5850
    -5      -5.203435      -1.846109      28.888660     -5.2430
    -5     -11.367435       1.347891      31.515661     -7.2165
    -5     -16.123434      -4.084109      31.431660     -8.4275
    -6      -4.795435      -2.916109      34.630661     10.4855
    -6       4.200565      -8.784109      31.993660      2.7670
    -6      -8.852435       0.285891      27.578661      7.1495
    -6      -3.041435      -0.568109      32.244659     12.3025
    -6       2.357565      -9.394110      29.600660      3.3850
    -6      -4.213435      -8.000109      27.988661      3.1730
    -6      -0.072435      -9.730109      27.790661      3.1305
    -6      -5.670435      -6.669109      30.101660      3.7935
    -6      -8.201435       4.235891      26.954660      6.1920
    -6     -12.890434      -7.400109      34.545662      1.4685
    -7       4.363565      -8.679110      32.533661     -1.5215
    -7      -0.014435      -5.342110      35.066662     -2.5455
    -7      -3.461435      -4.610109      28.784660     -2.2095
    -7      -1.545435      -2.453109      31.384661     -1.9865
    -7      -0.711435      -3.622109      32.124660     -2.6635
    -7       0.057565      -9.828110      27.601660     -1.0055
    -7      -2.429435      -9.284109      33.799660     -2.8535
    -7      -6.033435      -6.835109      30.392660     -2.3755
    -7      -0.554435      -4.174109      30.442661     -2.5750
    -7      -6.649435      -4.859109      34.997662     -2.5015
    -7      -4.682435      -2.916109      34.951660     -2.5990
    -7      -7.740435      -5.817109      31.679661     -2.8260
    -7      -7.762435      -4.223109      29.798660     -2.8005
    -7      -3.235435       0.106891      32.412659     -2.2950
    -7      -3.295435      -3.355109      28.966660     -2.0715
    -7      -6.891435       3.804891      32.901661     -1.8735
    -7      -8.441435       0.249891      27.457661     -3.1660
    -7     -11.569435       1.465891      31.888660     -3.6110
    -7      -9.833435      -0.092109      33.957661     -2.8670
    -7     -10.181435       2.971890      25.529659     -1.5790
    -7     -14.855434       1.930891      29.349661     -1.5570
    -7      -7.713435      -0.910109      28.559660     -3.7990
    -7      -9.860435      -1.657109      27.273661     -2.2270
    -7     -10.093435      -4.413109      28.988661     -1.9885
    -7     -12.795435      -1.993109      34.605659     -1.8255
    -7     -11.557434      -5.873109      29.983660     -1.8115
    -7     -15.085434      -1.152109      29.943661     -1.8210
    -7     -10.661434      -4.671109      35.267662     -1.8540
    -8       0.897565      -7.317110      32.616661      6.1475
    -8      -1.385435      -7.386109      31.115660      7.2370
    -8      -3.250435      -6.529109      32.944660      5.7700
    -8      -0.000435      -7.486109      31.799660      5.8540
    -8     -10.840435      -2.427109      31.396660      7.0220
    -8      -7.174435       1.665891      30.485661      7.0915
    -8      -5.752435      -3.036109      31.785660      4.1785
    -8     -11.314434       2.166891      28.268660      5.3080
    -8     -11.920435       1.536891      28.491661      5.3375
    -8     -12.181435      -4.033109      32.378662      5.4055
    -8      -6.947435       0.604891      31.421659      5.7470

$$$$
