Bace15:1_D
  xed2sdf_05210316543D
 
 83 86  0  0  1  0  0  0  0  0999 V2000
    0.7646   -7.9141   33.3255 C   0  0  0  0  0  0  0  0  0  0  0  0
   -0.0304   -7.9671   32.0075 C   0  0  0  0  0  0  0  0  0  0  0  0
    0.7306   -7.1511   30.9485 C   0  0  0  0  0  0  0  0  0  0  0  0
   -1.4904   -7.5471   32.1355 C   0  0  0  0  0  0  0  0  0  0  0  0
   -2.3894   -8.4181   32.7115 C   0  0  0  0  0  0  0  0  0  0  0  0
   -3.7154   -8.0701   32.8365 C   0  0  0  0  0  0  0  0  0  0  0  0
   -4.1504   -6.8451   32.3865 C   0  0  0  0  0  0  0  0  0  0  0  0
   -3.2624   -5.9631   31.8125 C   0  0  0  0  0  0  0  0  0  0  0  0
   -1.9384   -6.3221   31.6865 C   0  0  0  0  0  0  0  0  0  0  0  0
   -3.7244   -4.5971   31.3215 C   0  0  0  0  0  0  0  0  0  0  0  0
   -4.2544   -3.7401   32.4465 N   0  3  0  0  0  0  0  0  0  0  0  0
   -5.7424   -3.4951   32.4325 C   0  0  0  0  0  0  0  0  0  0  0  0
   -6.0944   -2.2451   31.5945 C   0  0  0  0  0  0  0  0  0  0  0  0
   -7.5664   -1.8221   31.8035 C   0  0  0  0  0  0  0  0  0  0  0  0
   -8.4404   -3.0261   32.2265 C   0  0  0  0  0  0  0  0  0  0  0  0
   -9.8514   -2.6851   32.6855 C   0  0  0  0  0  0  0  0  0  0  0  0
  -10.0774   -2.2311   33.9665 C   0  0  0  0  0  0  0  0  0  0  0  0
  -11.3544   -1.9191   34.3755 C   0  0  0  0  0  0  0  0  0  0  0  0
  -12.4104   -2.0551   33.5065 C   0  0  0  0  0  0  0  0  0  0  0  0
  -12.1974   -2.5101   32.2165 C   0  0  0  0  0  0  0  0  0  0  0  0
  -10.9114   -2.8291   31.8195 C   0  0  0  0  0  0  0  0  0  0  0  0
  -13.2034   -2.6491   31.3425 O   0  0  0  0  0  0  0  0  0  0  0  0
  -14.0924   -1.5261   31.1335 C   0  0  0  0  0  0  0  0  0  0  0  0
  -13.3114   -0.3161   30.5875 C   0  0  0  0  0  0  0  0  0  0  0  0
  -14.2134    0.8129   30.0605 C   0  0  0  0  0  0  0  0  0  0  0  0
  -13.4134    2.1059   29.7635 C   0  0  0  0  0  0  0  0  0  0  0  0
  -12.6734    2.1059   28.5135 O   0  0  0  0  0  0  0  0  0  0  0  0
  -11.4814    1.4899   28.4215 C   0  0  0  0  0  0  0  0  0  0  0  0
  -10.9344    1.2829   27.1675 C   0  0  0  0  0  0  0  0  0  0  0  0
   -9.7334    0.6269   27.0195 C   0  0  0  0  0  0  0  0  0  0  0  0
   -9.0624    0.1579   28.1255 C   0  0  0  0  0  0  0  0  0  0  0  0
   -9.5774    0.3559   29.3975 C   0  0  0  0  0  0  0  0  0  0  0  0
  -10.7714    1.0449   29.5205 C   0  0  0  0  0  0  0  0  0  0  0  0
   -8.9214   -0.1571   30.6305 C   0  0  0  0  0  0  0  0  0  0  0  0
   -9.2184    0.4069   31.6825 O   0  0  0  0  0  0  0  0  0  0  0  0
   -8.0854   -1.2161   30.5655 N   0  0  0  0  0  0  0  0  0  0  0  0
   -9.1484    0.4119   25.6375 C   0  0  0  0  0  0  0  0  0  0  0  0
   -7.7384    0.6889   25.6635 O   0  0  0  0  0  0  0  0  0  0  0  0
   -7.1044    0.3479   24.4205 C   0  0  0  0  0  0  0  0  0  0  0  0
   -5.7904   -2.4621   30.2075 O   0  0  0  0  0  0  0  0  0  0  0  0
   -5.5274   -1.4871   31.9135 H   0  0  0  0  0  0  0  0  0  0  0  0
   -7.6024   -1.1481   32.5415 H   0  0  0  0  0  0  0  0  0  0  0  0
    1.5036   -7.2471   33.2325 H   0  0  0  0  0  0  0  0  0  0  0  0
    0.1596   -7.6441   34.0735 H   0  0  0  0  0  0  0  0  0  0  0  0
    1.1466   -8.8161   33.5245 H   0  0  0  0  0  0  0  0  0  0  0  0
   -0.0914   -8.9241   31.7215 H   0  0  0  0  0  0  0  0  0  0  0  0
    0.1066   -6.4871   30.5375 H   0  0  0  0  0  0  0  0  0  0  0  0
    1.4976   -6.6731   31.3765 H   0  0  0  0  0  0  0  0  0  0  0  0
    1.0836   -7.7641   30.2405 H   0  0  0  0  0  0  0  0  0  0  0  0
   -2.0764   -9.3081   33.0415 H   0  0  0  0  0  0  0  0  0  0  0  0
   -4.3614   -8.7081   33.2545 H   0  0  0  0  0  0  0  0  0  0  0  0
   -5.1144   -6.5951   32.4775 H   0  0  0  0  0  0  0  0  0  0  0  0
   -1.2934   -5.6851   31.2635 H   0  0  0  0  0  0  0  0  0  0  0  0
   -4.4464   -4.7241   30.6415 H   0  0  0  0  0  0  0  0  0  0  0  0
   -2.9344   -4.1291   30.9255 H   0  0  0  0  0  0  0  0  0  0  0  0
   -4.0104   -4.1161   33.2395 H   0  0  0  0  0  0  0  0  0  0  0  0
   -3.8254   -2.9361   32.4495 H   0  0  0  0  0  0  0  0  0  0  0  0
   -6.0624   -3.3631   33.3705 H   0  0  0  0  0  0  0  0  0  0  0  0
   -6.1904   -4.2891   32.0195 H   0  0  0  0  0  0  0  0  0  0  0  0
   -7.9764   -3.4971   32.9755 H   0  0  0  0  0  0  0  0  0  0  0  0
   -8.5504   -3.5861   31.4045 H   0  0  0  0  0  0  0  0  0  0  0  0
   -9.3114   -2.1271   34.6015 H   0  0  0  0  0  0  0  0  0  0  0  0
  -11.5144   -1.5931   35.3075 H   0  0  0  0  0  0  0  0  0  0  0  0
  -13.3364   -1.8241   33.8065 H   0  0  0  0  0  0  0  0  0  0  0  0
  -10.7504   -3.1701   30.8935 H   0  0  0  0  0  0  0  0  0  0  0  0
  -14.5224   -1.2791   32.0015 H   0  0  0  0  0  0  0  0  0  0  0  0
  -14.7914   -1.7861   30.4675 H   0  0  0  0  0  0  0  0  0  0  0  0
  -12.7234   -0.6281   29.8415 H   0  0  0  0  0  0  0  0  0  0  0  0
  -12.7874    0.0619   31.3505 H   0  0  0  0  0  0  0  0  0  0  0  0
  -14.9144    1.0139   30.7445 H   0  0  0  0  0  0  0  0  0  0  0  0
  -14.6254    0.5039   29.2035 H   0  0  0  0  0  0  0  0  0  0  0  0
  -12.7624    2.2469   30.5105 H   0  0  0  0  0  0  0  0  0  0  0  0
  -14.0904    2.8379   29.6825 H   0  0  0  0  0  0  0  0  0  0  0  0
  -11.4184    1.6139   26.3575 H   0  0  0  0  0  0  0  0  0  0  0  0
   -8.1964   -0.3301   28.0105 H   0  0  0  0  0  0  0  0  0  0  0  0
  -11.1334    1.2259   30.4355 H   0  0  0  0  0  0  0  0  0  0  0  0
   -7.8774   -1.5731   29.7875 H   0  0  0  0  0  0  0  0  0  0  0  0
   -9.5984    1.0219   24.9845 H   0  0  0  0  0  0  0  0  0  0  0  0
   -9.2944   -0.5371   25.3585 H   0  0  0  0  0  0  0  0  0  0  0  0
   -7.7934   -0.0161   23.7925 H   0  0  0  0  0  0  0  0  0  0  0  0
   -6.6824    1.1619   24.0215 H   0  0  0  0  0  0  0  0  0  0  0  0
   -6.3974   -0.3411   24.5805 H   0  0  0  0  0  0  0  0  0  0  0  0
   -5.9944   -1.6461   29.6565 H   0  0  0  0  0  0  0  0  0  0  0  0
  1  2  1  0
  2  3  1  0
  2  4  1  0
  4  5  2  0
  4  9  1  0
  5  6  1  0
  6  7  2  0
  7  8  1  0
  8  9  2  0
  8 10  1  0
 10 11  1  0
 11 12  1  0
 12 13  1  0
 13 14  1  0
 13 40  1  0
 14 15  1  0
 14 36  1  0
 15 16  1  0
 16 17  2  0
 16 21  1  0
 17 18  1  0
 18 19  2  0
 19 20  1  0
 20 21  2  0
 20 22  1  0
 22 23  1  0
 23 24  1  0
 24 25  1  0
 25 26  1  0
 26 27  1  0
 27 28  1  0
 28 29  2  0
 28 33  1  0
 29 30  1  0
 30 31  2  0
 30 37  1  0
 31 32  1  0
 32 33  2  0
 32 34  1  0
 34 35  2  0
 34 36  1  0
 37 38  1  0
 38 39  1  0
  1 43  1  0
  1 44  1  0
  1 45  1  0
  2 46  1  0
  3 47  1  0
  3 48  1  0
  3 49  1  0
  5 50  1  0
  6 51  1  0
  7 52  1  0
  9 53  1  0
 10 54  1  0
 10 55  1  0
 11 56  1  0
 11 57  1  0
 12 58  1  0
 12 59  1  0
 13 41  1  0
 14 42  1  0
 15 60  1  0
 15 61  1  0
 17 62  1  0
 18 63  1  0
 19 64  1  0
 21 65  1  0
 23 66  1  0
 23 67  1  0
 24 68  1  0
 24 69  1  0
 25 70  1  0
 25 71  1  0
 26 72  1  0
 26 73  1  0
 29 74  1  0
 31 75  1  0
 33 76  1  0
 36 77  1  0
 37 78  1  0
 37 79  1  0
 39 80  1  0
 39 81  1  0
 39 82  1  0
 40 83  1  0
M  CHG  1  11   1
M  END
>  <LF dG>
-9.416

>  <LF VSscore>
-12.22

>  <LF Rank Score>
-9.973

>  <LF LE>
-0.235

>  <Favorite_cresset>
false

>  <Protein_cresset>
BACE_15_P

>  <MW_cresset>
547.7

>  <#Atoms_cresset>
40

>  <SlogP_cresset>
5.4

>  <TPSA_cresset>
93.6

>  <Flexibility_cresset>
13

>  <#RB_cresset>
9

>  <Rof5_cresset>
2

>  <Filename_cresset>
Bace15.smi

>  <Preferred Pose_cresset>
true

>  <_cresset_fieldpoints>
    -5      -1.914366      -6.199060      34.830498     -3.0330
    -5      -3.190366      -8.343060      29.651499     -3.8395
    -5     -11.938366      -5.169060      33.602497     -4.2120
    -5     -13.677366      -4.933060      31.342499     -4.5200
    -5     -10.410366       0.744940      33.170498     -8.9860
    -5     -11.629366      -2.194060      28.604498     -2.3825
    -5     -11.855366       4.418940      28.046497     -3.2095
    -5      -7.197366       2.326940      26.693499     -5.6580
    -5      -6.048366      -4.040060      29.216497     -2.4650
    -6      -3.715366     -10.896060      34.186497      3.0300
    -6      -3.214366      -0.909060      32.121498      5.2890
    -6      -6.781366      -1.794060      28.069498     10.3185
    -6      -0.588366     -10.936060      33.437500      3.2375
    -6       3.648633      -8.147060      31.859497      2.2240
    -6      -7.004366      -5.923060      33.546497      5.3570
    -6      -0.501366      -3.821060      30.391499      4.0495
    -6      -9.943366      -0.557060      22.958498      5.3510
    -6      -7.066366      -2.149060      35.020500      5.4960
    -6     -14.861366      -0.006060      33.877499      4.1175
    -7      -0.356366     -11.082060      33.285500     -1.7945
    -7      -9.625366      -3.013060      28.803497     -3.2655
    -7       0.406634      -4.638060      33.133499     -2.3330
    -7      -1.434366      -5.195060      28.729498     -1.8920
    -7       2.515634      -9.944059      31.335499     -1.5280
    -7      -7.003366      -4.362060      29.410498     -2.8670
    -7      -1.801366      -8.342060      28.996498     -2.1245
    -7      -1.491366      -3.825060      33.752499     -2.1915
    -7      -5.618366      -5.474060      34.929497     -2.0980
    -7      -1.798366      -5.760060      34.967499     -2.4840
    -7      -3.480366      -1.688060      29.922499     -2.0465
    -7     -11.202366       1.106940      32.884499     -3.8055
    -7      -6.136366       0.590940      29.854498     -2.7470
    -7     -11.350367      -5.477060      33.984497     -1.8770
    -7     -13.605366       1.078940      33.488499     -2.5480
    -7      -6.924366      -1.611060      35.040497     -2.4865
    -7      -8.638366       0.663940      34.029499     -2.3175
    -7     -15.253366      -3.801060      33.140499     -1.6675
    -7      -7.526366      -6.131060      33.146500     -2.4085
    -7     -17.156366      -0.443060      30.821499     -1.4285
    -7     -11.000366       4.348940      30.048498     -1.7450
    -7     -11.399366      -2.310060      28.581497     -3.7300
    -7      -6.629366      -2.033060      27.520498     -2.3105
    -7      -9.404366      -2.038060      23.269497     -1.1290
    -7      -4.351366       0.194940      22.644497     -0.6185
    -7      -8.607367       3.586940      28.370499     -1.9520
    -7      -7.085366       2.678940      26.949497     -2.0330
    -7     -10.204367      -0.382060      22.700499     -1.2225
    -8      -0.530366      -7.149060      31.658499      6.0785
    -8      -0.020366      -7.493060      32.078499      6.0650
    -8      -2.816366      -7.192060      32.260498      7.2240
    -8      -7.040366      -2.846060      32.266499      5.8195
    -8     -10.240366       0.806940      28.272499      7.0345
    -8     -11.105366      -2.365060      33.112499      7.0800
    -8     -13.472366       0.788940      30.295498      5.4890
    -8     -14.021366      -0.260060      30.582499      5.5050
    -8      -9.844366      -2.678060      32.689499      5.6905
    -8      -8.545366       0.149940      24.549498      2.6285
    -8      -6.781366       0.117940      23.645498      2.5390

$$$$
