Bace16:1_D
  xed2sdf_05210316543D
 
 85 88  0  0  1  0  0  0  0  0999 V2000
  -11.0500   -4.2240   32.1069 C   0  0  0  0  0  0  0  0  0  0  0  0
  -10.4040   -3.1390   32.9859 C   0  0  0  0  0  0  0  0  0  0  0  0
  -11.4830   -2.5890   33.9359 C   0  0  0  0  0  0  0  0  0  0  0  0
   -9.6630   -2.0890   32.1649 C   0  0  0  0  0  0  0  0  0  0  0  0
  -10.1630   -1.5920   30.9789 C   0  0  0  0  0  0  0  0  0  0  0  0
   -9.4610   -0.6490   30.2649 C   0  0  0  0  0  0  0  0  0  0  0  0
   -8.2470   -0.1990   30.7279 C   0  0  0  0  0  0  0  0  0  0  0  0
   -7.7330   -0.6910   31.9069 C   0  0  0  0  0  0  0  0  0  0  0  0
   -8.4450   -1.6300   32.6199 C   0  0  0  0  0  0  0  0  0  0  0  0
   -6.3790   -0.2130   32.4059 C   0  0  0  0  0  0  0  0  0  0  0  0
   -5.2180   -0.8770   31.7169 N   0  3  0  0  0  0  0  0  0  0  0  0
   -4.7670   -2.1280   32.4149 C   0  0  0  0  0  0  0  0  0  0  0  0
   -5.4860   -3.3910   31.8869 C   0  0  0  0  0  0  0  0  0  0  0  0
   -4.4860   -4.5360   31.6089 C   0  0  0  0  0  0  0  0  0  0  0  0
   -4.3600   -5.4900   32.8209 C   0  0  0  0  0  0  0  0  0  0  0  0
   -3.4720   -6.6990   32.5679 C   0  0  0  0  0  0  0  0  0  0  0  0
   -3.9410   -7.7780   31.8509 C   0  0  0  0  0  0  0  0  0  0  0  0
   -3.1190   -8.8540   31.5989 C   0  0  0  0  0  0  0  0  0  0  0  0
   -1.8230   -8.8540   32.0579 C   0  0  0  0  0  0  0  0  0  0  0  0
   -1.3440   -7.7790   32.7849 C   0  0  0  0  0  0  0  0  0  0  0  0
   -2.1800   -6.7090   33.0429 C   0  0  0  0  0  0  0  0  0  0  0  0
   -0.0870   -7.7530   33.2439 O   0  0  0  0  0  0  0  0  0  0  0  0
    0.9900   -7.8870   32.2879 C   0  0  0  0  0  0  0  0  0  0  0  0
    1.0230   -6.6860   31.3199 C   0  0  0  0  0  0  0  0  0  0  0  0
    2.4160   -6.4830   30.6949 C   0  0  0  0  0  0  0  0  0  0  0  0
    2.3730   -5.4290   29.5679 C   0  0  0  0  0  0  0  0  0  0  0  0
    1.8020   -4.1730   30.0059 O   0  0  0  0  0  0  0  0  0  0  0  0
    0.7150   -3.7440   29.3569 C   0  0  0  0  0  0  0  0  0  0  0  0
   -0.5280   -3.8540   29.9509 C   0  0  0  0  0  0  0  0  0  0  0  0
   -1.6760   -3.4550   29.2829 C   0  0  0  0  0  0  0  0  0  0  0  0
   -1.5380   -2.9190   28.0119 C   0  0  0  0  0  0  0  0  0  0  0  0
   -0.3040   -2.7750   27.4099 C   0  0  0  0  0  0  0  0  0  0  0  0
    0.8240   -3.2010   28.0919 C   0  0  0  0  0  0  0  0  0  0  0  0
   -0.2530   -2.2620   26.1719 O   0  0  0  0  0  0  0  0  0  0  0  0
   -0.3550   -0.8320   25.9889 C   0  0  0  0  0  0  0  0  0  0  0  0
    0.9790   -0.1590   26.2069 C   0  0  0  0  0  0  0  0  0  0  0  0
    1.2860    0.3470   27.2609 O   0  0  0  0  0  0  0  0  0  0  0  0
    1.9130   -0.1440   25.0249 C   0  0  0  0  0  0  0  0  0  0  0  0
   -3.0360   -3.6270   29.8669 C   0  0  0  0  0  0  0  0  0  0  0  0
   -3.9860   -3.4400   29.1089 O   0  0  0  0  0  0  0  0  0  0  0  0
   -3.1880   -4.0110   31.1529 N   0  0  0  0  0  0  0  0  0  0  0  0
   -6.2780   -3.0920   30.7259 O   0  0  0  0  0  0  0  0  0  0  0  0
   -6.1080   -3.7060   32.6039 H   0  0  0  0  0  0  0  0  0  0  0  0
   -4.8490   -5.0890   30.8579 H   0  0  0  0  0  0  0  0  0  0  0  0
  -10.9000   -3.9950   31.1449 H   0  0  0  0  0  0  0  0  0  0  0  0
  -10.6390   -5.1130   32.3089 H   0  0  0  0  0  0  0  0  0  0  0  0
  -12.0310   -4.2690   32.2939 H   0  0  0  0  0  0  0  0  0  0  0  0
   -9.6760   -3.5310   33.5499 H   0  0  0  0  0  0  0  0  0  0  0  0
  -11.5160   -1.5930   33.8489 H   0  0  0  0  0  0  0  0  0  0  0  0
  -12.3730   -2.9770   33.6979 H   0  0  0  0  0  0  0  0  0  0  0  0
  -11.2610   -2.8380   34.8789 H   0  0  0  0  0  0  0  0  0  0  0  0
  -11.0440   -1.9190   30.6369 H   0  0  0  0  0  0  0  0  0  0  0  0
   -9.8340   -0.2910   29.4079 H   0  0  0  0  0  0  0  0  0  0  0  0
   -7.7370    0.4860   30.2079 H   0  0  0  0  0  0  0  0  0  0  0  0
   -8.0740   -1.9830   33.4779 H   0  0  0  0  0  0  0  0  0  0  0  0
   -6.3180   -0.3990   33.3859 H   0  0  0  0  0  0  0  0  0  0  0  0
   -6.3200    0.7650   32.2039 H   0  0  0  0  0  0  0  0  0  0  0  0
   -5.4360   -1.0680   30.8549 H   0  0  0  0  0  0  0  0  0  0  0  0
   -4.5210   -0.2920   31.6599 H   0  0  0  0  0  0  0  0  0  0  0  0
   -4.9520   -2.0360   33.3929 H   0  0  0  0  0  0  0  0  0  0  0  0
   -3.7890   -2.2400   32.2369 H   0  0  0  0  0  0  0  0  0  0  0  0
   -5.2740   -5.8140   33.0639 H   0  0  0  0  0  0  0  0  0  0  0  0
   -3.9310   -4.9670   33.5569 H   0  0  0  0  0  0  0  0  0  0  0  0
   -4.8820   -7.7800   31.5129 H   0  0  0  0  0  0  0  0  0  0  0  0
   -3.4660   -9.6360   31.0809 H   0  0  0  0  0  0  0  0  0  0  0  0
   -1.2260   -9.6330   31.8659 H   0  0  0  0  0  0  0  0  0  0  0  0
   -1.8440   -5.9350   33.5789 H   0  0  0  0  0  0  0  0  0  0  0  0
    0.8620   -8.7290   31.7639 H   0  0  0  0  0  0  0  0  0  0  0  0
    1.8560   -7.9160   32.7859 H   0  0  0  0  0  0  0  0  0  0  0  0
    0.7690   -5.8590   31.8209 H   0  0  0  0  0  0  0  0  0  0  0  0
    0.3790   -6.8710   30.5779 H   0  0  0  0  0  0  0  0  0  0  0  0
    2.7370   -7.3530   30.3199 H   0  0  0  0  0  0  0  0  0  0  0  0
    3.0390   -6.1590   31.4069 H   0  0  0  0  0  0  0  0  0  0  0  0
    1.8240   -5.7870   28.8119 H   0  0  0  0  0  0  0  0  0  0  0  0
    3.3140   -5.2510   29.2819 H   0  0  0  0  0  0  0  0  0  0  0  0
   -0.6000   -4.2270   30.8759 H   0  0  0  0  0  0  0  0  0  0  0  0
   -2.3570   -2.6280   27.5159 H   0  0  0  0  0  0  0  0  0  0  0  0
    1.7240   -3.1140   27.6649 H   0  0  0  0  0  0  0  0  0  0  0  0
   -1.0190   -0.4640   26.6409 H   0  0  0  0  0  0  0  0  0  0  0  0
   -0.6500   -0.6520   25.0509 H   0  0  0  0  0  0  0  0  0  0  0  0
    2.7560    0.3300   25.2809 H   0  0  0  0  0  0  0  0  0  0  0  0
    2.1240   -1.0810   24.7489 H   0  0  0  0  0  0  0  0  0  0  0  0
    1.4790    0.3310   24.2589 H   0  0  0  0  0  0  0  0  0  0  0  0
   -2.5110   -3.9820   31.7139 H   0  0  0  0  0  0  0  0  0  0  0  0
   -7.2540   -3.2720   30.8909 H   0  0  0  0  0  0  0  0  0  0  0  0
  1  2  1  0
  2  3  1  0
  2  4  1  0
  4  5  2  0
  4  9  1  0
  5  6  1  0
  6  7  2  0
  7  8  1  0
  8  9  2  0
  8 10  1  0
 10 11  1  0
 11 12  1  0
 12 13  1  0
 13 14  1  0
 13 42  1  0
 14 15  1  0
 14 41  1  0
 15 16  1  0
 16 17  2  0
 16 21  1  0
 17 18  1  0
 18 19  2  0
 19 20  1  0
 20 21  2  0
 20 22  1  0
 22 23  1  0
 23 24  1  0
 24 25  1  0
 25 26  1  0
 26 27  1  0
 27 28  1  0
 28 29  2  0
 28 33  1  0
 29 30  1  0
 30 31  2  0
 30 39  1  0
 31 32  1  0
 32 33  2  0
 32 34  1  0
 34 35  1  0
 35 36  1  0
 36 37  2  0
 36 38  1  0
 39 40  2  0
 39 41  1  0
  1 45  1  0
  1 46  1  0
  1 47  1  0
  2 48  1  0
  3 49  1  0
  3 50  1  0
  3 51  1  0
  5 52  1  0
  6 53  1  0
  7 54  1  0
  9 55  1  0
 10 56  1  0
 10 57  1  0
 11 58  1  0
 11 59  1  0
 12 60  1  0
 12 61  1  0
 13 43  1  0
 14 44  1  0
 15 62  1  0
 15 63  1  0
 17 64  1  0
 18 65  1  0
 19 66  1  0
 21 67  1  0
 23 68  1  0
 23 69  1  0
 24 70  1  0
 24 71  1  0
 25 72  1  0
 25 73  1  0
 26 74  1  0
 26 75  1  0
 29 76  1  0
 31 77  1  0
 33 78  1  0
 35 79  1  0
 35 80  1  0
 38 81  1  0
 38 82  1  0
 38 83  1  0
 41 84  1  0
 42 85  1  0
M  CHG  1  11   1
M  END
>  <LF dG>
-11.896

>  <LF VSscore>
-14.594

>  <LF Rank Score>
-14.042

>  <LF LE>
-0.283

>  <Favorite_cresset>
false

>  <Protein_cresset>
BACE_16_P

>  <MW_cresset>
575.7

>  <#Atoms_cresset>
42

>  <SlogP_cresset>
5.2

>  <TPSA_cresset>
110.7

>  <Flexibility_cresset>
13.5

>  <#RB_cresset>
10

>  <Rof5_cresset>
2

>  <Filename_cresset>
Bace16.smi

>  <Preferred Pose_cresset>
true

>  <_cresset_fieldpoints>
    -5     -10.373044       0.917964      32.868916     -3.5825
    -5      -5.815065      -2.944177      29.003479    -16.4074
    -5       2.762956       1.159965      27.901917     -7.9725
    -5       0.536957       0.124965      28.917917     -8.9640
    -5      -3.022043      -9.128036      34.939919     -3.1970
    -5      -0.210044      -8.566035      35.439919     -3.5175
    -5      -2.918044      -6.262035      29.456917     -6.4750
    -6     -13.117043      -2.658035      30.372917      3.4385
    -6      -1.661044      -3.690035      33.488914      9.3040
    -6      -6.359044       2.390965      30.362917      2.4360
    -6      -9.138043       1.565965      28.097916      2.2605
    -6      -6.844044      -3.383035      34.714916      8.0080
    -6       0.310956     -10.670035      30.606916      4.4705
    -6       1.502957      -9.457035      29.600916      4.3205
    -6       3.254956      -7.872036      27.948917      3.6760
    -6       3.416957      -4.426035      26.846916      3.9270
    -6       3.139956      -3.033035      25.957916      3.7940
    -6      -0.587044       0.691965      23.201916      4.5170
    -7     -10.650043      -5.613035      35.118916     -1.5450
    -7     -13.439044      -2.028035      31.364916     -2.1335
    -7      -8.648044      -2.491035      35.810917     -1.9960
    -7      -7.980043      -5.270035      31.803917     -3.4045
    -7      -6.113044      -2.071035      28.719917     -3.0815
    -7      -3.663043      -0.724035      29.229916     -2.8880
    -7      -5.344044       1.089965      29.536917     -1.9835
    -7     -10.574043       0.900965      33.385918     -2.3350
    -7      -7.405044      -4.191035      34.598915     -2.7465
    -7      -3.680044       0.402965      34.089916     -1.5400
    -7      -2.207044      -0.703035      30.786917     -2.6755
    -7      -0.370044      -4.010036      33.239918     -3.1015
    -7      -1.935044      -3.359035      33.951916     -2.8285
    -7      -3.724044      -9.001036      35.111916     -1.8590
    -7       0.328956     -10.573035      33.975918     -1.6635
    -7       3.338957      -9.761036      31.099916     -1.3995
    -7       5.602956      -6.450035      30.170916     -1.1145
    -7       1.864957      -3.628035      24.950916     -2.0455
    -7       3.966956      -2.565035      28.933916     -1.7910
    -7       1.479956      -3.661035      32.721916     -2.4850
    -7      -1.893044      -6.699036      29.363916     -4.1345
    -7      -2.811044      -2.691035      24.918917     -1.6685
    -7       3.201957      -1.005035      28.036917     -2.1610
    -7      -0.441044       2.263965      24.907917     -1.3095
    -7       2.988956      -4.973035      26.391916     -1.6690
    -7       0.004956      -0.087035      29.305916     -2.6995
    -8     -10.733044      -2.957035      32.653915      6.0765
    -8      -8.954043      -1.150035      31.448915      7.2340
    -8      -9.730043      -2.182035      32.219917      5.8445
    -8      -2.677043      -7.770035      32.299915      7.0860
    -8      -4.952044      -4.521035      32.465916      5.1485
    -8      -0.444044      -3.330035      28.697916      6.8830
    -8       1.642956      -7.086035      31.382915      5.4860
    -8       1.792957      -6.386035      30.545916      5.2775
    -8       0.795956      -0.401035      25.202917      4.4560
    -8      -3.476043      -6.683035      32.542915      5.7020

$$$$
