Bace17:1_D
  xed2sdf_05210316543D
 
 62 64  0  0  1  0  0  0  0  0999 V2000
   -0.6115   -0.5121   23.2180 C   0  0  0  0  0  0  0  0  0  0  0  0
   -0.2725   -1.5881   24.1620 N   0  0  0  0  0  0  0  0  0  0  0  0
    0.6335   -2.6271   23.6410 C   0  0  0  0  0  0  0  0  0  0  0  0
   -0.8225   -1.6091   25.4030 C   0  0  0  0  0  0  0  0  0  0  0  0
   -1.7155   -0.8321   25.7380 O   0  0  0  0  0  0  0  0  0  0  0  0
   -0.4065   -2.5631   26.4710 C   0  0  0  0  0  0  0  0  0  0  0  0
    0.8975   -3.0241   26.6000 C   0  0  0  0  0  0  0  0  0  0  0  0
   -1.3515   -3.0041   27.3860 C   0  0  0  0  0  0  0  0  0  0  0  0
   -1.0195   -3.8701   28.4140 C   0  0  0  0  0  0  0  0  0  0  0  0
    0.2955   -4.2861   28.5240 C   0  0  0  0  0  0  0  0  0  0  0  0
    1.2495   -3.8951   27.6140 C   0  0  0  0  0  0  0  0  0  0  0  0
   -2.0395   -4.4041   29.3530 C   0  0  0  0  0  0  0  0  0  0  0  0
   -3.1855   -4.5031   28.9200 O   0  0  0  0  0  0  0  0  0  0  0  0
   -1.6575   -4.8051   30.5860 N   0  0  0  0  0  0  0  0  0  0  0  0
   -2.4715   -5.7701   31.3450 C   0  0  0  0  0  0  0  0  0  0  0  0
   -3.4475   -5.0991   32.3370 C   0  0  0  0  0  0  0  0  0  0  0  0
   -3.3545   -5.7141   33.6310 O   0  0  0  0  0  0  0  0  0  0  0  0
   -3.2145   -3.5841   32.4700 C   0  0  0  0  0  0  0  0  0  0  0  0
   -4.1285   -3.0211   33.4220 O   0  0  0  0  0  0  0  0  0  0  0  0
   -1.6305   -6.8121   32.1340 C   0  0  0  0  0  0  0  0  0  0  0  0
   -0.1945   -7.1541   31.7370 C   0  0  0  0  0  0  0  0  0  0  0  0
    0.2815   -7.1091   30.4440 C   0  0  0  0  0  0  0  0  0  0  0  0
    1.6085   -7.3821   30.1520 C   0  0  0  0  0  0  0  0  0  0  0  0
    2.4455   -7.7581   31.1920 C   0  0  0  0  0  0  0  0  0  0  0  0
    1.9745   -7.8321   32.4790 C   0  0  0  0  0  0  0  0  0  0  0  0
    0.6615   -7.5251   32.7500 C   0  0  0  0  0  0  0  0  0  0  0  0
    2.0385   -7.2581   28.8840 O   0  0  0  0  0  0  0  0  0  0  0  0
    3.4435   -7.4571   28.6000 C   0  0  0  0  0  0  0  0  0  0  0  0
    3.7965   -7.2211   27.1120 C   0  0  0  0  0  0  0  0  0  0  0  0
    4.3035   -5.7891   26.8060 C   0  0  0  0  0  0  0  0  0  0  0  0
    3.1785   -4.7701   26.5310 C   0  0  0  0  0  0  0  0  0  0  0  0
    2.4835   -4.3961   27.7370 O   0  0  0  0  0  0  0  0  0  0  0  0
   -2.9915   -6.2411   30.6320 H   0  0  0  0  0  0  0  0  0  0  0  0
   -4.3655   -5.2301   31.9640 H   0  0  0  0  0  0  0  0  0  0  0  0
   -1.2585    0.1129   23.6550 H   0  0  0  0  0  0  0  0  0  0  0  0
    0.2165   -0.0141   22.9610 H   0  0  0  0  0  0  0  0  0  0  0  0
   -1.0235   -0.9041   22.3950 H   0  0  0  0  0  0  0  0  0  0  0  0
    0.7635   -3.3271   24.3430 H   0  0  0  0  0  0  0  0  0  0  0  0
    0.2355   -3.0411   22.8220 H   0  0  0  0  0  0  0  0  0  0  0  0
    1.5145   -2.2181   23.4040 H   0  0  0  0  0  0  0  0  0  0  0  0
    1.5925   -2.7211   25.9480 H   0  0  0  0  0  0  0  0  0  0  0  0
   -2.2965   -2.6891   27.3000 H   0  0  0  0  0  0  0  0  0  0  0  0
    0.5575   -4.8821   29.2830 H   0  0  0  0  0  0  0  0  0  0  0  0
   -0.8895   -4.5371   30.9210 H   0  0  0  0  0  0  0  0  0  0  0  0
   -3.2095   -5.0291   34.3530 H   0  0  0  0  0  0  0  0  0  0  0  0
   -3.3515   -3.1491   31.5800 H   0  0  0  0  0  0  0  0  0  0  0  0
   -2.2785   -3.4251   32.7850 H   0  0  0  0  0  0  0  0  0  0  0  0
   -3.7795   -3.1051   34.3610 H   0  0  0  0  0  0  0  0  0  0  0  0
   -2.1445   -7.6701   32.1060 H   0  0  0  0  0  0  0  0  0  0  0  0
   -1.5025   -6.3571   33.0150 H   0  0  0  0  0  0  0  0  0  0  0  0
   -0.3435   -6.8731   29.7000 H   0  0  0  0  0  0  0  0  0  0  0  0
    3.4035   -7.9761   31.0020 H   0  0  0  0  0  0  0  0  0  0  0  0
    2.5855   -8.1101   33.2200 H   0  0  0  0  0  0  0  0  0  0  0  0
    0.3255   -7.5721   33.6910 H   0  0  0  0  0  0  0  0  0  0  0  0
    3.6905   -8.3951   28.8430 H   0  0  0  0  0  0  0  0  0  0  0  0
    3.9565   -6.7881   29.1380 H   0  0  0  0  0  0  0  0  0  0  0  0
    2.9785   -7.3921   26.5620 H   0  0  0  0  0  0  0  0  0  0  0  0
    4.5445   -7.8461   26.8890 H   0  0  0  0  0  0  0  0  0  0  0  0
    4.8975   -5.8291   26.0020 H   0  0  0  0  0  0  0  0  0  0  0  0
    4.7855   -5.4721   27.6230 H   0  0  0  0  0  0  0  0  0  0  0  0
    2.5245   -5.1731   25.8900 H   0  0  0  0  0  0  0  0  0  0  0  0
    3.5945   -3.9461   26.1470 H   0  0  0  0  0  0  0  0  0  0  0  0
  1  2  1  0
  2  3  1  0
  2  4  1  0
  4  5  2  0
  4  6  1  0
  6  7  2  0
  6  8  1  0
  7 11  1  0
  8  9  2  0
  9 10  1  0
  9 12  1  0
 10 11  2  0
 11 32  1  0
 12 13  2  0
 12 14  1  0
 14 15  1  0
 15 16  1  0
 15 20  1  0
 16 17  1  0
 16 18  1  0
 18 19  1  0
 20 21  1  0
 21 22  2  0
 21 26  1  0
 22 23  1  0
 23 24  2  0
 23 27  1  0
 24 25  1  0
 25 26  2  0
 27 28  1  0
 28 29  1  0
 29 30  1  0
 30 31  1  0
 31 32  1  0
  1 35  1  0
  1 36  1  0
  1 37  1  0
  3 38  1  0
  3 39  1  0
  3 40  1  0
  7 41  1  0
  8 42  1  0
 10 43  1  0
 14 44  1  0
 15 33  1  0
 16 34  1  0
 17 45  1  0
 18 46  1  0
 18 47  1  0
 19 48  1  0
 20 49  1  0
 20 50  1  0
 22 51  1  0
 24 52  1  0
 25 53  1  0
 26 54  1  0
 28 55  1  0
 28 56  1  0
 29 57  1  0
 29 58  1  0
 30 59  1  0
 30 60  1  0
 31 61  1  0
 31 62  1  0
M  END
>  <LF dG>
-9.571

>  <LF VSscore>
-11.744

>  <LF Rank Score>
-10.749

>  <LF LE>
-0.299

>  <Favorite_cresset>
false

>  <Protein_cresset>
BACE_17_P

>  <MW_cresset>
442.5

>  <#Atoms_cresset>
32

>  <SlogP_cresset>
2.4

>  <TPSA_cresset>
108.3

>  <Flexibility_cresset>
8.5

>  <#RB_cresset>
6

>  <Rof5_cresset>
0

>  <Filename_cresset>
Bace17.smi

>  <Preferred Pose_cresset>
true

>  <_cresset_fieldpoints>
    -5      -2.778515      -0.172095      27.211990    -10.8210
    -5      -5.048515      -4.494095      29.440990    -10.7685
    -5      -4.347515      -4.254096      27.398991    -10.9440
    -5      -5.715515      -2.376096      32.703991     -9.7005
    -5      -4.348515      -7.279096      33.870991     -7.1770
    -5       0.425485      -7.109096      27.170990     -5.4335
    -5       0.051485     -10.129095      30.769991     -4.6190
    -5       3.182485      -4.530096      29.968990     -3.9330
    -6       3.294485      -3.784095      23.779991      6.8500
    -6       1.605485      -1.516095      21.072990      4.2835
    -6      -2.472515      -3.777095      35.334991     12.0530
    -6       5.534485      -8.240095      30.622992      4.9160
    -6       1.905485      -7.808095      35.623993      3.2570
    -7       1.246485      -1.405095      20.662991     -1.2035
    -7      -2.521515      -3.406096      23.869991     -2.1955
    -7      -0.690515      -2.023095      31.059990     -2.5835
    -7       3.479485      -1.548095      25.076990     -2.0660
    -7       3.201485      -4.574095      23.381990     -1.8580
    -7       3.224485      -4.547095      30.317991     -3.5000
    -7       0.528485      -0.985096      29.507992     -1.9245
    -7      -3.979515      -2.101095      29.327991     -2.1595
    -7       1.902485      -0.125095      25.330992     -2.3995
    -7      -5.302515      -3.801095      29.864990     -1.9670
    -7      -5.462515      -4.675096      34.787991     -1.5915
    -7       1.579485      -4.225095      31.556992     -3.3270
    -7      -3.054515      -0.886096      34.226990     -0.9520
    -7       0.250485      -4.142096      33.052990     -2.9765
    -7       0.141485     -10.494095      30.955992     -1.9075
    -7      -2.185515      -7.069096      28.187990     -2.9370
    -7       6.652485      -7.044096      28.890991     -1.5940
    -7       0.398485      -6.979095      26.740992     -3.6630
    -7       2.723485      -6.760096      23.903992     -1.6490
    -8       3.989485      -6.678095      27.501991      5.3030
    -8       3.745485      -6.132095      26.783991      5.2385
    -8      -0.768515       0.073905      22.648991      2.5660
    -8      -0.079515      -1.612095      23.743992      2.7295
    -8      -0.080515      -3.436095      27.494991      6.9940
    -8      -3.079515      -4.627095      31.824991      4.1795
    -8       1.115485      -7.457095      31.488991      7.0740

$$$$
