CatS_4_D
  xed2sdf_05210316543D
 
 99104  0  0  0  0  0  0  0  0999 V2000
   -9.1274    8.8586  -11.0458 C   0  0  0  0  0  0  0  0  0  0  0  0
   -9.3034   10.4326  -10.1658 S   0  0  0  0  0  0  0  0  0  0  0  0
  -10.2064   10.2236   -9.0798 O   0  0  0  0  0  0  0  0  0  0  0  0
   -9.6134   11.4536  -11.1148 O   0  0  0  0  0  0  0  0  0  0  0  0
   -7.8434   10.7736   -9.5308 N   0  0  0  0  0  0  0  0  0  0  0  0
   -6.7644   11.0356  -10.5058 C   0  0  0  0  0  0  0  0  0  0  0  0
   -5.5624   11.7526   -9.8508 C   0  0  0  0  0  0  0  0  0  0  0  0
   -5.1084   10.9806   -8.6248 C   0  0  0  0  0  0  0  0  0  0  0  0
   -5.9174   10.1136   -8.0108 C   0  0  0  0  0  0  0  0  0  0  0  0
   -5.1104    9.5836   -6.9768 C   0  0  0  0  0  0  0  0  0  0  0  0
   -3.9304   10.1646   -7.0348 N   0  0  0  0  0  0  0  0  0  0  0  0
   -3.8824   11.0566   -8.0468 N   0  0  0  0  0  0  0  0  0  0  0  0
   -2.7134   11.8906   -8.3618 C   0  0  0  0  0  0  0  0  0  0  0  0
   -2.7924   13.3216   -7.7998 C   0  0  0  0  0  0  0  0  0  0  0  0
   -1.9774   13.4446   -6.4948 C   0  0  0  0  0  0  0  0  0  0  0  0
   -2.3004   14.6696   -5.6728 N   0  3  0  0  0  0  0  0  0  0  0  0
   -1.6084   15.9166   -6.1768 C   0  0  0  0  0  0  0  0  0  0  0  0
   -1.9534   17.1486   -5.3148 C   0  0  0  0  0  0  0  0  0  0  0  0
   -1.5864   16.8716   -3.8458 C   0  0  0  0  0  0  0  0  0  0  0  0
   -2.4024   15.6626   -3.3508 C   0  0  0  0  0  0  0  0  0  0  0  0
   -2.0494   14.4266   -4.2028 C   0  0  0  0  0  0  0  0  0  0  0  0
   -1.7454   18.0776   -3.0188 N   0  0  0  0  0  0  0  0  0  0  0  0
   -2.9064   18.9636   -3.1508 C   0  0  0  0  0  0  0  0  0  0  0  0
   -2.7974   19.7436   -1.8278 C   0  0  0  0  0  0  0  0  0  0  0  0
   -1.3174   19.6846   -1.4148 C   0  0  0  0  0  0  0  0  0  0  0  0
   -0.8404   18.4306   -2.0968 C   0  0  0  0  0  0  0  0  0  0  0  0
    0.1956   17.8376   -1.8318 O   0  0  0  0  0  0  0  0  0  0  0  0
   -5.4154    8.5526   -5.9998 C   0  0  0  0  0  0  0  0  0  0  0  0
   -4.5754    7.4586   -5.9118 C   0  0  0  0  0  0  0  0  0  0  0  0
   -4.8214    6.4526   -5.0098 C   0  0  0  0  0  0  0  0  0  0  0  0
   -5.9044    6.4996   -4.1568 C   0  0  0  0  0  0  0  0  0  0  0  0
   -6.7324    7.6116   -4.2268 C   0  0  0  0  0  0  0  0  0  0  0  0
   -6.4994    8.6166   -5.1408 C   0  0  0  0  0  0  0  0  0  0  0  0
   -8.1384    7.8136   -3.1208 S   0  0  0  0  0  0  0  0  0  0  0  0
   -8.6864    9.5476   -3.1248 C   0  0  0  0  0  0  0  0  0  0  0  0
   -8.1514   10.3616   -1.9298 C   0  0  0  0  0  0  0  0  0  0  0  0
   -9.0164   11.5356   -1.5488 N   0  3  0  0  0  0  0  0  0  0  0  0
   -8.4024   12.4286   -0.4968 C   0  0  0  0  0  0  0  0  0  0  0  0
   -9.3164   13.6326   -0.1858 C   0  0  0  0  0  0  0  0  0  0  0  0
  -10.7084   13.1386    0.2532 C   0  0  0  0  0  0  0  0  0  0  0  0
  -11.3274   12.2766   -0.8658 C   0  0  0  0  0  0  0  0  0  0  0  0
  -10.4054   11.0806   -1.1748 C   0  0  0  0  0  0  0  0  0  0  0  0
  -11.6264   14.3326    0.5732 C   0  0  0  0  0  0  0  0  0  0  0  0
  -11.0524   15.5306    0.1632 F   0  0  0  0  0  0  0  0  0  0  0  0
  -11.8704   14.4176    1.9392 F   0  0  0  0  0  0  0  0  0  0  0  0
  -12.8514   14.1976   -0.0708 F   0  0  0  0  0  0  0  0  0  0  0  0
   -6.0734    5.3156   -3.2038 C   0  0  0  0  0  0  0  0  0  0  0  0
   -7.2434    4.6216   -3.4888 F   0  0  0  0  0  0  0  0  0  0  0  0
   -5.0204    4.4126   -3.2988 F   0  0  0  0  0  0  0  0  0  0  0  0
   -6.1384    5.6946   -1.8658 F   0  0  0  0  0  0  0  0  0  0  0  0
   -7.3444    9.8486   -8.4818 C   0  0  0  0  0  0  0  0  0  0  0  0
   -8.1834    8.5396  -10.9558 H   0  0  0  0  0  0  0  0  0  0  0  0
   -9.7514    8.1816  -10.6558 H   0  0  0  0  0  0  0  0  0  0  0  0
   -9.3494    8.9876  -12.0128 H   0  0  0  0  0  0  0  0  0  0  0  0
   -7.1244   11.6086  -11.2428 H   0  0  0  0  0  0  0  0  0  0  0  0
   -6.4464   10.1576  -10.8618 H   0  0  0  0  0  0  0  0  0  0  0  0
   -5.8314   12.6766   -9.5828 H   0  0  0  0  0  0  0  0  0  0  0  0
   -4.8094   11.7996  -10.5068 H   0  0  0  0  0  0  0  0  0  0  0  0
   -2.6254   11.9456   -9.3568 H   0  0  0  0  0  0  0  0  0  0  0  0
   -1.9234   11.4546   -7.9308 H   0  0  0  0  0  0  0  0  0  0  0  0
   -3.7484   13.5506   -7.6138 H   0  0  0  0  0  0  0  0  0  0  0  0
   -2.4104   13.9526   -8.4748 H   0  0  0  0  0  0  0  0  0  0  0  0
   -1.0064   13.4706   -6.7318 H   0  0  0  0  0  0  0  0  0  0  0  0
   -2.2164   12.6536   -5.9318 H   0  0  0  0  0  0  0  0  0  0  0  0
   -3.1954   14.8176   -5.7528 H   0  0  0  0  0  0  0  0  0  0  0  0
   -1.8934   16.0886   -7.1198 H   0  0  0  0  0  0  0  0  0  0  0  0
   -0.6214   15.7686   -6.1238 H   0  0  0  0  0  0  0  0  0  0  0  0
   -2.9324   17.3416   -5.3848 H   0  0  0  0  0  0  0  0  0  0  0  0
   -1.4354   17.9386   -5.6428 H   0  0  0  0  0  0  0  0  0  0  0  0
   -0.6174   16.6346   -3.7688 H   0  0  0  0  0  0  0  0  0  0  0  0
   -3.3794   15.8606   -3.4328 H   0  0  0  0  0  0  0  0  0  0  0  0
   -2.1834   15.4806   -2.3918 H   0  0  0  0  0  0  0  0  0  0  0  0
   -1.0834   14.2036   -4.0708 H   0  0  0  0  0  0  0  0  0  0  0  0
   -2.6334   13.6696   -3.9088 H   0  0  0  0  0  0  0  0  0  0  0  0
   -3.7624   18.4506   -3.2128 H   0  0  0  0  0  0  0  0  0  0  0  0
   -2.9114   19.5316   -3.9738 H   0  0  0  0  0  0  0  0  0  0  0  0
   -3.3724   19.3216   -1.1268 H   0  0  0  0  0  0  0  0  0  0  0  0
   -3.1074   20.6886   -1.9348 H   0  0  0  0  0  0  0  0  0  0  0  0
   -1.2194   19.6196   -0.4218 H   0  0  0  0  0  0  0  0  0  0  0  0
   -0.7984   20.4996   -1.6718 H   0  0  0  0  0  0  0  0  0  0  0  0
   -3.7774    7.3996   -6.5128 H   0  0  0  0  0  0  0  0  0  0  0  0
   -4.2024    5.6686   -4.9718 H   0  0  0  0  0  0  0  0  0  0  0  0
   -7.1184    9.4006   -5.1828 H   0  0  0  0  0  0  0  0  0  0  0  0
   -9.6864    9.5656   -3.1018 H   0  0  0  0  0  0  0  0  0  0  0  0
   -8.3224    9.9696   -3.9548 H   0  0  0  0  0  0  0  0  0  0  0  0
   -7.2404   10.7026   -2.1628 H   0  0  0  0  0  0  0  0  0  0  0  0
   -8.1414    9.7456   -1.1428 H   0  0  0  0  0  0  0  0  0  0  0  0
   -9.1024   12.0446   -2.3008 H   0  0  0  0  0  0  0  0  0  0  0  0
   -7.5194   12.7626   -0.8258 H   0  0  0  0  0  0  0  0  0  0  0  0
   -8.2854   11.8966    0.3412 H   0  0  0  0  0  0  0  0  0  0  0  0
   -9.4064   14.2016   -1.0038 H   0  0  0  0  0  0  0  0  0  0  0  0
   -8.9114   14.1696    0.5542 H   0  0  0  0  0  0  0  0  0  0  0  0
  -10.6124   12.5846    1.0812 H   0  0  0  0  0  0  0  0  0  0  0  0
  -11.4424   12.8316   -1.6888 H   0  0  0  0  0  0  0  0  0  0  0  0
  -12.2184   11.9356   -0.5648 H   0  0  0  0  0  0  0  0  0  0  0  0
  -10.3504   10.4916   -0.3688 H   0  0  0  0  0  0  0  0  0  0  0  0
  -10.7914   10.5806   -1.9508 H   0  0  0  0  0  0  0  0  0  0  0  0
   -7.3864    8.9176   -8.8428 H   0  0  0  0  0  0  0  0  0  0  0  0
   -7.9294    9.9916   -7.6838 H   0  0  0  0  0  0  0  0  0  0  0  0
  1  2  1  0
  2  3  2  0
  2  4  2  0
  2  5  1  0
  5  6  1  0
  5 51  1  0
  6  7  1  0
  7  8  1  0
  8  9  2  0
  8 12  1  0
  9 10  1  0
  9 51  1  0
 10 11  2  0
 10 28  1  0
 11 12  1  0
 12 13  1  0
 13 14  1  0
 14 15  1  0
 15 16  1  0
 16 17  1  0
 16 21  1  0
 17 18  1  0
 18 19  1  0
 19 20  1  0
 19 22  1  0
 20 21  1  0
 22 23  1  0
 22 26  1  0
 23 24  1  0
 24 25  1  0
 25 26  1  0
 26 27  2  0
 28 29  2  0
 28 33  1  0
 29 30  1  0
 30 31  2  0
 31 32  1  0
 31 47  1  0
 32 33  2  0
 32 34  1  0
 34 35  1  0
 35 36  1  0
 36 37  1  0
 37 38  1  0
 37 42  1  0
 38 39  1  0
 39 40  1  0
 40 41  1  0
 40 43  1  0
 41 42  1  0
 43 44  1  0
 43 45  1  0
 43 46  1  0
 47 48  1  0
 47 49  1  0
 47 50  1  0
  1 52  1  0
  1 53  1  0
  1 54  1  0
  6 55  1  0
  6 56  1  0
  7 57  1  0
  7 58  1  0
 13 59  1  0
 13 60  1  0
 14 61  1  0
 14 62  1  0
 15 63  1  0
 15 64  1  0
 16 65  1  0
 17 66  1  0
 17 67  1  0
 18 68  1  0
 18 69  1  0
 19 70  1  0
 20 71  1  0
 20 72  1  0
 21 73  1  0
 21 74  1  0
 23 75  1  0
 23 76  1  0
 24 77  1  0
 24 78  1  0
 25 79  1  0
 25 80  1  0
 29 81  1  0
 30 82  1  0
 33 83  1  0
 35 84  1  0
 35 85  1  0
 36 86  1  0
 36 87  1  0
 37 88  1  0
 38 89  1  0
 38 90  1  0
 39 91  1  0
 39 92  1  0
 40 93  1  0
 41 94  1  0
 41 95  1  0
 42 96  1  0
 42 97  1  0
 51 98  1  0
 51 99  1  0
M  CHG  2  16   1  37   1
M  END
>  <LF dG>
-11.993

>  <LF VSscore>
-13.926

>  <LF Rank Score>
-9.247

>  <LF LE>
-0.235

>  <Favorite_cresset>
false

>  <Protein_cresset>
haan-CatS_chainA-aligned_P

>  <MW_cresset>
766.9

>  <#Atoms_cresset>
51

>  <SlogP_cresset>
5.7

>  <TPSA_cresset>
84.4

>  <Flexibility_cresset>
11.9

>  <#RB_cresset>
13

>  <Rof5_cresset>
2

>  <Filename_cresset>
CatS_4.pdb

>  <Preferred Pose_cresset>
true

>  <_cresset_fieldpoints>
    -5     -10.773386      12.542604      -9.492826     -4.6605
    -5      -2.712386      10.117605      -5.541826     -3.8115
    -5       1.476614      18.171604      -0.663826     -9.2150
    -5       1.196614      16.412605      -2.165826     -8.9085
    -6      -4.606386      10.734605     -12.596827      7.4465
    -6      -3.489386      13.764605     -10.730825      9.3535
    -6      -8.542385      12.786605      -4.074826      9.6510
    -6      -8.787386      12.532605       2.698174      4.9735
    -6      -4.959386      15.836605      -5.683825     10.5505
    -6      -6.664386       8.881605     -12.782825      7.6820
    -6      -9.613386      10.684605       2.023174      5.1075
    -6      -2.463386       5.194605      -6.489826      4.4080
    -7      -5.562386       7.746605     -10.291826     -2.6525
    -7      -9.608385       8.748605      -6.323826     -3.0100
    -7      -8.159386      12.918605      -8.043826     -2.6770
    -7      -7.821385       6.685605      -7.436826     -3.1145
    -7      -9.035385       7.659605      -6.888825     -2.9840
    -7     -10.570385      11.942605      -4.307826     -2.4300
    -7      -8.612386      11.229605     -13.330826     -1.8810
    -7      -2.387386       8.665605      -8.393826     -2.5820
    -7      -4.795385      12.356605      -5.316826     -3.7325
    -7       0.086614      14.819605      -8.759826     -1.8415
    -7      -3.708386      14.216604     -10.784826     -1.9115
    -7      -5.198386      16.198605      -5.208826     -2.3355
    -7      -4.638386      16.082605      -7.332826     -2.3140
    -7      -0.121386      19.923605      -4.560826     -2.4860
    -7       1.274614      15.034605      -4.587826     -2.0630
    -7      -3.804386      19.584604      -6.412826     -1.4495
    -7       0.418614      15.446605      -1.666826     -2.0925
    -7      -2.279386      10.170605      -5.416826     -2.9710
    -7      -6.698386      11.844604      -4.819826     -3.2305
    -7      -4.889386       9.231605      -2.133826     -3.0140
    -7      -2.733386      16.851604      -0.302826     -2.4420
    -7      -2.920386      21.347605       1.001174     -1.0740
    -7      -8.773386       9.612604       1.394174     -2.1050
    -7     -10.094385      14.052605      -3.442826     -2.3815
    -7      -8.868385      12.939605       2.980174     -2.0035
    -7      -9.539386      10.458605       2.051174     -2.1795
    -7      -7.859385      16.424604      -0.700826     -1.3145
    -7     -12.620386      11.065605       1.908174     -2.0550
    -7     -13.874386      12.402605      -2.774826     -1.3015
    -7      -9.686386       8.050605       0.106174     -2.0730
    -7     -13.777386      17.116604       1.305174     -1.1195
    -7      -7.267385      11.836605      -5.384826     -3.2285
    -7      -9.249386       5.198605      -0.893826     -1.4405
    -7      -6.567386       2.500605      -0.997826     -1.1540
    -8      -5.659386       7.528605      -5.071826      7.2115
    -8      -9.007385       9.298605     -10.744825      4.1840
    -8      -6.116385       9.998605      -8.066826      4.9425
    -8      -2.285386      12.849605      -7.532825      5.2590
    -8      -7.537386       8.518604      -3.929826      5.9160
    -8      -6.015386      10.733604      -9.270826      5.4295
    -8      -8.179386       9.091604      -2.787826      5.6330
    -8      -6.033386       5.472605      -3.345826      6.2480
    -8     -11.392385      13.546605      -0.097826      6.4415
    -8      -1.909386      16.090605      -4.512826      5.8115
    -8      -2.147386      19.550606      -1.969826      5.1710
    -8     -10.745386      13.945604       0.054174      6.4415
    -8     -11.413385      14.088605       0.406174      6.4435

$$$$
