CatS_176_D
  xed2sdf_05210316543D
 
 96100  0  0  1  0  0  0  0  0999 V2000
   -2.0255   17.9952   -2.4538 C   0  0  0  0  0  0  0  0  0  0  0  0
   -2.6995   16.7612   -3.0938 C   0  0  0  0  0  0  0  0  0  0  0  0
   -3.9065   17.3002   -3.8908 C   0  0  0  0  0  0  0  0  0  0  0  0
   -1.7245   15.9892   -4.0248 C   0  0  0  0  0  0  0  0  0  0  0  0
   -2.0705   14.4812   -4.0638 C   0  0  0  0  0  0  0  0  0  0  0  0
   -1.1055   13.7322   -4.9998 C   0  0  0  0  0  0  0  0  0  0  0  0
   -1.1185   14.2762   -6.4038 N   0  3  0  0  0  0  0  0  0  0  0  0
   -0.8245   15.7582   -6.4108 C   0  0  0  0  0  0  0  0  0  0  0  0
   -1.7575   16.5532   -5.4708 C   0  0  0  0  0  0  0  0  0  0  0  0
   -2.3155   13.8182   -7.2028 C   0  0  0  0  0  0  0  0  0  0  0  0
   -2.1785   12.4512   -7.9048 C   0  0  0  0  0  0  0  0  0  0  0  0
   -3.3775   12.0792   -8.8108 C   0  0  0  0  0  0  0  0  0  0  0  0
   -4.3725   11.1192   -8.3058 N   0  0  0  0  0  0  0  0  0  0  0  0
   -5.5985   10.7862   -8.7848 C   0  0  0  0  0  0  0  0  0  0  0  0
   -6.1865    9.8252   -8.0718 C   0  0  0  0  0  0  0  0  0  0  0  0
   -5.2375    9.5192   -7.0718 C   0  0  0  0  0  0  0  0  0  0  0  0
   -4.1945   10.3072   -7.2328 N   0  0  0  0  0  0  0  0  0  0  0  0
   -5.3585    8.5182   -6.0278 C   0  0  0  0  0  0  0  0  0  0  0  0
   -4.5685    7.3832   -6.0248 C   0  0  0  0  0  0  0  0  0  0  0  0
   -4.7165    6.4342   -5.0408 C   0  0  0  0  0  0  0  0  0  0  0  0
   -5.6485    6.5842   -4.0348 C   0  0  0  0  0  0  0  0  0  0  0  0
   -6.4305    7.7322   -4.0288 C   0  0  0  0  0  0  0  0  0  0  0  0
   -6.2855    8.6812   -5.0158 C   0  0  0  0  0  0  0  0  0  0  0  0
   -7.6755    8.0002   -2.7518 S   0  0  0  0  0  0  0  0  0  0  0  0
   -8.4595    9.6372   -2.8288 C   0  0  0  0  0  0  0  0  0  0  0  0
   -8.1095   10.5352   -1.6218 C   0  0  0  0  0  0  0  0  0  0  0  0
   -8.0415   12.0172   -1.9128 N   0  3  0  0  0  0  0  0  0  0  0  0
   -9.2635   12.5362   -2.6428 C   0  0  0  0  0  0  0  0  0  0  0  0
   -9.7745   13.8782   -2.0758 C   0  0  0  0  0  0  0  0  0  0  0  0
  -10.1075   13.7102   -0.5798 C   0  0  0  0  0  0  0  0  0  0  0  0
   -8.8975   13.1502    0.2122 C   0  0  0  0  0  0  0  0  0  0  0  0
   -7.6775   12.8282   -0.6858 C   0  0  0  0  0  0  0  0  0  0  0  0
  -10.5165   14.9372   -0.0658 F   0  0  0  0  0  0  0  0  0  0  0  0
  -11.1935   12.8532   -0.4268 F   0  0  0  0  0  0  0  0  0  0  0  0
   -5.7335    5.4522   -3.0098 C   0  0  0  0  0  0  0  0  0  0  0  0
   -7.0145    4.9142   -2.9738 F   0  0  0  0  0  0  0  0  0  0  0  0
   -4.8565    4.4182   -3.3188 F   0  0  0  0  0  0  0  0  0  0  0  0
   -5.4235    5.8532   -1.7138 F   0  0  0  0  0  0  0  0  0  0  0  0
   -7.5905    9.3172   -8.3678 C   0  0  0  0  0  0  0  0  0  0  0  0
   -8.0425    9.6272   -9.7418 N   0  0  0  0  0  0  0  0  0  0  0  0
   -7.7905   11.0572  -10.0218 C   0  0  0  0  0  0  0  0  0  0  0  0
   -6.2805   11.3962   -9.9988 C   0  0  0  0  0  0  0  0  0  0  0  0
   -9.4805    9.0202  -10.1948 S   0  0  0  0  0  0  0  0  0  0  0  0
   -9.6775    9.3912  -11.5588 O   0  0  0  0  0  0  0  0  0  0  0  0
   -9.4625    7.6302   -9.8728 O   0  0  0  0  0  0  0  0  0  0  0  0
  -10.7675    9.8212   -9.1988 C   0  0  0  0  0  0  0  0  0  0  0  0
   -0.9775   12.5012   -8.6818 O   0  0  0  0  0  0  0  0  0  0  0  0
   -3.1495   15.8812   -2.0548 O   0  0  0  0  0  0  0  0  0  0  0  0
   -2.1535   11.7402   -7.2028 H   0  0  0  0  0  0  0  0  0  0  0  0
   -2.0555   17.9022   -1.4588 H   0  0  0  0  0  0  0  0  0  0  0  0
   -1.0755   18.0572   -2.7588 H   0  0  0  0  0  0  0  0  0  0  0  0
   -2.5105   18.8242   -2.7308 H   0  0  0  0  0  0  0  0  0  0  0  0
   -4.7465   16.9162   -3.5078 H   0  0  0  0  0  0  0  0  0  0  0  0
   -3.9335   18.2982   -3.8298 H   0  0  0  0  0  0  0  0  0  0  0  0
   -3.8205   17.0352   -4.8508 H   0  0  0  0  0  0  0  0  0  0  0  0
   -0.8065   16.1102   -3.6488 H   0  0  0  0  0  0  0  0  0  0  0  0
   -3.0085   14.3652   -4.3918 H   0  0  0  0  0  0  0  0  0  0  0  0
   -1.9825   14.1052   -3.1418 H   0  0  0  0  0  0  0  0  0  0  0  0
   -1.3675   12.7682   -5.0258 H   0  0  0  0  0  0  0  0  0  0  0  0
   -0.1815   13.8532   -4.6388 H   0  0  0  0  0  0  0  0  0  0  0  0
   -0.4145   13.8792   -6.8178 H   0  0  0  0  0  0  0  0  0  0  0  0
   -0.9355   16.1032   -7.3428 H   0  0  0  0  0  0  0  0  0  0  0  0
    0.1115   15.8822   -6.0828 H   0  0  0  0  0  0  0  0  0  0  0  0
   -1.4665   17.5102   -5.4548 H   0  0  0  0  0  0  0  0  0  0  0  0
   -2.6915   16.4722   -5.8178 H   0  0  0  0  0  0  0  0  0  0  0  0
   -2.4995   14.5082   -7.9028 H   0  0  0  0  0  0  0  0  0  0  0  0
   -3.0545   13.7052   -6.5388 H   0  0  0  0  0  0  0  0  0  0  0  0
   -3.0025   11.7002   -9.6568 H   0  0  0  0  0  0  0  0  0  0  0  0
   -3.8885   12.9332   -8.8988 H   0  0  0  0  0  0  0  0  0  0  0  0
   -3.8845    7.2512   -6.7428 H   0  0  0  0  0  0  0  0  0  0  0  0
   -4.1365    5.6202   -5.0538 H   0  0  0  0  0  0  0  0  0  0  0  0
   -6.8585    9.5012   -4.9998 H   0  0  0  0  0  0  0  0  0  0  0  0
   -9.4515    9.5142   -2.8608 H   0  0  0  0  0  0  0  0  0  0  0  0
   -8.1145   10.0942   -3.6488 H   0  0  0  0  0  0  0  0  0  0  0  0
   -7.2195   10.2462   -1.2688 H   0  0  0  0  0  0  0  0  0  0  0  0
   -8.8575   10.4192   -0.9678 H   0  0  0  0  0  0  0  0  0  0  0  0
   -7.3395   12.1142   -2.4868 H   0  0  0  0  0  0  0  0  0  0  0  0
   -9.9935   11.8572   -2.5688 H   0  0  0  0  0  0  0  0  0  0  0  0
   -9.0005   12.6942   -3.5948 H   0  0  0  0  0  0  0  0  0  0  0  0
  -10.5955   14.1602   -2.5728 H   0  0  0  0  0  0  0  0  0  0  0  0
   -9.0675   14.5772   -2.1828 H   0  0  0  0  0  0  0  0  0  0  0  0
   -9.1815   12.3122    0.6792 H   0  0  0  0  0  0  0  0  0  0  0  0
   -8.6115   13.8582    0.8572 H   0  0  0  0  0  0  0  0  0  0  0  0
   -7.2615   13.6882   -0.9828 H   0  0  0  0  0  0  0  0  0  0  0  0
   -7.0445   12.2772   -0.1418 H   0  0  0  0  0  0  0  0  0  0  0  0
   -8.2255    9.7372   -7.7188 H   0  0  0  0  0  0  0  0  0  0  0  0
   -7.5715    8.3212   -8.2798 H   0  0  0  0  0  0  0  0  0  0  0  0
   -8.2585   11.6102   -9.3328 H   0  0  0  0  0  0  0  0  0  0  0  0
   -8.1355   11.2572  -10.9398 H   0  0  0  0  0  0  0  0  0  0  0  0
   -5.8505   11.0412  -10.8288 H   0  0  0  0  0  0  0  0  0  0  0  0
   -6.1815   12.3902   -9.9498 H   0  0  0  0  0  0  0  0  0  0  0  0
  -11.2085    9.1332   -8.6228 H   0  0  0  0  0  0  0  0  0  0  0  0
  -10.3575   10.5302   -8.6238 H   0  0  0  0  0  0  0  0  0  0  0  0
  -11.4455   10.2432   -9.8008 H   0  0  0  0  0  0  0  0  0  0  0  0
   -0.1765   12.6772   -8.0988 H   0  0  0  0  0  0  0  0  0  0  0  0
   -2.4275   15.7112   -1.3768 H   0  0  0  0  0  0  0  0  0  0  0  0
  1  2  1  0
  2  3  1  0
  2  4  1  0
  2 48  1  0
  4  5  1  0
  4  9  1  0
  5  6  1  0
  6  7  1  0
  7  8  1  0
  7 10  1  0
  8  9  1  0
 10 11  1  0
 11 12  1  0
 11 47  1  0
 12 13  1  0
 13 14  1  0
 13 17  1  0
 14 15  2  0
 14 42  1  0
 15 16  1  0
 15 39  1  0
 16 17  2  0
 16 18  1  0
 18 19  2  0
 18 23  1  0
 19 20  1  0
 20 21  2  0
 21 22  1  0
 21 35  1  0
 22 23  2  0
 22 24  1  0
 24 25  1  0
 25 26  1  0
 26 27  1  0
 27 28  1  0
 27 32  1  0
 28 29  1  0
 29 30  1  0
 30 31  1  0
 30 33  1  0
 30 34  1  0
 31 32  1  0
 35 36  1  0
 35 37  1  0
 35 38  1  0
 39 40  1  0
 40 41  1  0
 40 43  1  0
 41 42  1  0
 43 44  2  0
 43 45  2  0
 43 46  1  0
  1 50  1  0
  1 51  1  0
  1 52  1  0
  3 53  1  0
  3 54  1  0
  3 55  1  0
  4 56  1  0
  5 57  1  0
  5 58  1  0
  6 59  1  0
  6 60  1  0
  7 61  1  0
  8 62  1  0
  8 63  1  0
  9 64  1  0
  9 65  1  0
 10 66  1  0
 10 67  1  0
 11 49  1  0
 12 68  1  0
 12 69  1  0
 19 70  1  0
 20 71  1  0
 23 72  1  0
 25 73  1  0
 25 74  1  0
 26 75  1  0
 26 76  1  0
 27 77  1  0
 28 78  1  0
 28 79  1  0
 29 80  1  0
 29 81  1  0
 31 82  1  0
 31 83  1  0
 32 84  1  0
 32 85  1  0
 39 86  1  0
 39 87  1  0
 41 88  1  0
 41 89  1  0
 42 90  1  0
 42 91  1  0
 46 92  1  0
 46 93  1  0
 46 94  1  0
 47 95  1  0
 48 96  1  0
M  CHG  2   7   1  27   1
M  END
>  <LF dG>
-13.639

>  <LF VSscore>
-15.791

>  <LF Rank Score>
-10.709

>  <LF LE>
-0.284

>  <Favorite_cresset>
false

>  <Protein_cresset>
haan-CatS_chainA-aligned_P

>  <MW_cresset>
725.9

>  <#Atoms_cresset>
48

>  <SlogP_cresset>
5.3

>  <TPSA_cresset>
104.5

>  <Flexibility_cresset>
14.4

>  <#RB_cresset>
14

>  <Rof5_cresset>
2

>  <Filename_cresset>
CatS_176.pdb

>  <Preferred Pose_cresset>
true

>  <_cresset_fieldpoints>
    -5      -2.888492       9.157168      -8.653849     -3.2930
    -5      -7.233492       7.707169     -11.084848     -5.6515
    -5      -9.314491       7.046168     -12.042849     -5.9360
    -5      -2.845492      10.079168      -5.714849     -2.3525
    -5      -7.229492       5.853168      -7.030849     -1.9740
    -5     -13.182491      14.428168       1.074151     -1.3245
    -5      -0.632492      11.774168     -10.368849     -2.6280
    -5      -4.799492      15.213169      -1.818849     -3.9695
    -6      -2.038492      19.791168      -5.103849      5.7480
    -6       1.239508      12.821169      -7.077849     13.9355
    -6      -6.929492      11.873169      -4.575849     10.6690
    -6      -5.581491      14.441169      -8.967849      8.4155
    -6      -7.376492      10.540169       1.458151      4.7855
    -6      -8.515491      11.108169      -5.698849     10.6525
    -6      -5.938492      13.594169       1.659151      4.7225
    -6      -0.716492      15.517168      -0.968849     10.1945
    -6      -2.269492       5.147169      -6.297849      3.8280
    -6      -7.439492      11.689169      -5.073849     10.3870
    -7      -4.010491      11.768168      -5.133849     -3.9635
    -7      -5.099492      14.328169      -2.592849     -2.9770
    -7      -0.211492      15.243168      -1.270849     -2.1525
    -7       1.042509      17.824169      -4.332849     -2.1345
    -7      -7.942492      11.552169      -5.756849     -3.8635
    -7      -5.072492      14.972168      -5.837849     -2.8665
    -7       1.634508      15.631168      -3.992849     -2.0215
    -7       2.016509      13.994168      -6.146849     -1.6490
    -7      -0.084492      14.616169      -9.426849     -2.2500
    -7       0.485508      11.338168      -6.416849     -1.9765
    -7      -2.277492      19.894169      -5.190849     -2.0060
    -7      -4.242492      13.318169     -11.643848     -1.6240
    -7      -2.267492       9.076168      -8.156849     -2.7765
    -7     -11.385492       9.807169      -1.235849     -2.2235
    -7      -7.780492      10.208168       1.527151     -1.9490
    -7     -12.449492      12.316169      -3.447849     -1.6195
    -7      -7.542492      16.229168      -0.825849     -2.0820
    -7     -10.689491      13.285169       2.894151     -1.4515
    -7     -10.380491       9.995169       0.918151     -1.8885
    -7     -13.078491      14.863169      -2.277849     -1.3830
    -7      -6.030492       2.749168      -0.636849     -1.1560
    -7      -8.231491       5.781168       0.021151     -1.4520
    -7      -5.179492      10.980168      -3.074849     -3.3010
    -7      -6.367492       8.208168     -11.174849     -2.7125
    -7      -6.973492      12.948169     -12.737848     -1.1615
    -7      -8.048491       6.366168      -6.619849     -3.2160
    -7      -5.741492       6.623168      -9.067848     -2.3550
    -7      -9.554491       8.800169      -5.826849     -3.3840
    -7     -10.498491      11.669168     -11.932849     -1.8935
    -8      -2.519492      16.734169      -4.326849      6.3125
    -8      -1.657492      15.470169      -4.813849      6.0985
    -8      -2.963492      13.051168      -7.878849      4.6630
    -8      -6.714492      10.698169      -9.051849      5.3835
    -8      -5.504492       7.551168      -5.026849      7.2135
    -8     -10.284492       9.679169      -9.403849      4.1705
    -8      -5.711492       5.602169      -3.169849      6.2535
    -8      -6.413492       9.734169      -7.980849      4.9440
    -8      -7.175492       8.560168      -3.737849      5.7545
    -8      -7.956491       9.256168      -2.431849      5.5675
    -8      -9.845491      13.597168      -0.731849      6.4015

$$$$
