CatS_142_D
  xed2sdf_05210316543D
 
 87 91  0  0  1  0  0  0  0  0999 V2000
   -9.9951   12.7805   -9.8920 C   0  0  0  0  0  0  0  0  0  0  0  0
  -10.6131   11.4595   -9.6990 N   0  0  0  0  0  0  0  0  0  0  0  0
   -9.9811   10.4335   -9.0800 C   0  0  0  0  0  0  0  0  0  0  0  0
  -10.6631    9.5805   -8.4980 O   0  0  0  0  0  0  0  0  0  0  0  0
   -8.6271   10.3305   -9.0860 N   0  0  0  0  0  0  0  0  0  0  0  0
   -7.8011   10.7025  -10.2570 C   0  0  0  0  0  0  0  0  0  0  0  0
   -6.4661   11.3855   -9.8840 C   0  0  0  0  0  0  0  0  0  0  0  0
   -5.7861   10.6485   -8.7400 C   0  0  0  0  0  0  0  0  0  0  0  0
   -6.4631    9.8705   -7.8890 C   0  0  0  0  0  0  0  0  0  0  0  0
   -5.4601    9.3775   -7.0220 C   0  0  0  0  0  0  0  0  0  0  0  0
   -4.3031    9.8775   -7.4000 N   0  0  0  0  0  0  0  0  0  0  0  0
   -4.4571   10.6935   -8.4640 N   0  0  0  0  0  0  0  0  0  0  0  0
   -3.3731   11.4825   -9.0680 C   0  0  0  0  0  0  0  0  0  0  0  0
   -3.0691   12.7415   -8.2310 C   0  0  0  0  0  0  0  0  0  0  0  0
   -1.9251   12.4695   -7.2280 C   0  0  0  0  0  0  0  0  0  0  0  0
   -1.5131   13.6695   -6.4060 N   0  3  0  0  0  0  0  0  0  0  0  0
   -1.7001   14.9935   -7.1040 C   0  0  0  0  0  0  0  0  0  0  0  0
   -0.9681   16.1395   -6.3630 C   0  0  0  0  0  0  0  0  0  0  0  0
   -0.7631   15.8365   -4.8620 C   0  0  0  0  0  0  0  0  0  0  0  0
   -1.9481   15.0305   -4.2990 C   0  0  0  0  0  0  0  0  0  0  0  0
   -2.0591   13.6525   -4.9950 C   0  0  0  0  0  0  0  0  0  0  0  0
   -4.2591   13.1795   -7.5610 O   0  0  0  0  0  0  0  0  0  0  0  0
   -5.5821    8.4705   -5.8930 C   0  0  0  0  0  0  0  0  0  0  0  0
   -4.5401    7.6155   -5.5860 C   0  0  0  0  0  0  0  0  0  0  0  0
   -4.6311    6.7505   -4.5210 C   0  0  0  0  0  0  0  0  0  0  0  0
   -5.7521    6.7135   -3.7160 C   0  0  0  0  0  0  0  0  0  0  0  0
   -6.7871    7.5875   -4.0150 C   0  0  0  0  0  0  0  0  0  0  0  0
   -6.7081    8.4425   -5.0910 C   0  0  0  0  0  0  0  0  0  0  0  0
   -8.2761    7.6845   -3.0110 S   0  0  0  0  0  0  0  0  0  0  0  0
   -8.5141    9.4685   -2.8030 C   0  0  0  0  0  0  0  0  0  0  0  0
   -9.2601    9.7615   -1.4850 C   0  0  0  0  0  0  0  0  0  0  0  0
   -9.0701   11.1615   -0.9490 N   0  3  0  0  0  0  0  0  0  0  0  0
  -10.2081   12.1005   -1.2680 C   0  0  0  0  0  0  0  0  0  0  0  0
  -10.0401   13.4255   -0.4960 C   0  0  0  0  0  0  0  0  0  0  0  0
   -8.6791   14.0595   -0.8440 C   0  0  0  0  0  0  0  0  0  0  0  0
   -7.5331   13.0885   -0.4950 C   0  0  0  0  0  0  0  0  0  0  0  0
   -7.7191   11.7595   -1.2580 C   0  0  0  0  0  0  0  0  0  0  0  0
   -8.5211   15.2375   -0.1230 F   0  0  0  0  0  0  0  0  0  0  0  0
   -5.7551    5.7145   -2.5600 C   0  0  0  0  0  0  0  0  0  0  0  0
   -7.0281    5.1915   -2.3600 F   0  0  0  0  0  0  0  0  0  0  0  0
   -4.9051    4.6305   -2.7580 F   0  0  0  0  0  0  0  0  0  0  0  0
   -5.3631    6.3235   -1.3730 F   0  0  0  0  0  0  0  0  0  0  0  0
   -7.9691    9.6365   -7.9560 C   0  0  0  0  0  0  0  0  0  0  0  0
   -2.7641   13.4725   -8.8410 H   0  0  0  0  0  0  0  0  0  0  0  0
  -10.6791   13.4095  -10.2600 H   0  0  0  0  0  0  0  0  0  0  0  0
   -9.6561   13.1255   -9.0170 H   0  0  0  0  0  0  0  0  0  0  0  0
   -9.2291   12.7045  -10.5300 H   0  0  0  0  0  0  0  0  0  0  0  0
  -11.4621   11.3595   -9.9110 H   0  0  0  0  0  0  0  0  0  0  0  0
   -8.3281   11.3285  -10.8320 H   0  0  0  0  0  0  0  0  0  0  0  0
   -7.5701    9.8535  -10.7330 H   0  0  0  0  0  0  0  0  0  0  0  0
   -6.6451   12.3305   -9.6080 H   0  0  0  0  0  0  0  0  0  0  0  0
   -5.8621   11.3675  -10.6800 H   0  0  0  0  0  0  0  0  0  0  0  0
   -3.6431   11.7575   -9.9910 H   0  0  0  0  0  0  0  0  0  0  0  0
   -2.5491   10.9165   -9.1000 H   0  0  0  0  0  0  0  0  0  0  0  0
   -1.1281   12.1505   -7.7410 H   0  0  0  0  0  0  0  0  0  0  0  0
   -2.2701   11.7885   -6.5820 H   0  0  0  0  0  0  0  0  0  0  0  0
   -0.6101   13.5885   -6.3100 H   0  0  0  0  0  0  0  0  0  0  0  0
   -2.6771   15.2035   -7.1460 H   0  0  0  0  0  0  0  0  0  0  0  0
   -1.3111   14.9195   -8.0220 H   0  0  0  0  0  0  0  0  0  0  0  0
   -1.5071   16.9775   -6.4530 H   0  0  0  0  0  0  0  0  0  0  0  0
   -0.0641   16.2415   -6.7780 H   0  0  0  0  0  0  0  0  0  0  0  0
   -0.6811   16.6975   -4.3600 H   0  0  0  0  0  0  0  0  0  0  0  0
    0.0709   15.2945   -4.7560 H   0  0  0  0  0  0  0  0  0  0  0  0
   -2.7941   15.5425   -4.4460 H   0  0  0  0  0  0  0  0  0  0  0  0
   -1.7981   14.8815   -3.3220 H   0  0  0  0  0  0  0  0  0  0  0  0
   -1.5481   12.9785   -4.4610 H   0  0  0  0  0  0  0  0  0  0  0  0
   -3.0291   13.4175   -5.0480 H   0  0  0  0  0  0  0  0  0  0  0  0
   -4.2611   12.8955   -6.5950 H   0  0  0  0  0  0  0  0  0  0  0  0
   -3.7111    7.6265   -6.1450 H   0  0  0  0  0  0  0  0  0  0  0  0
   -3.8681    6.1335   -4.3260 H   0  0  0  0  0  0  0  0  0  0  0  0
   -7.4751    9.0505   -5.2950 H   0  0  0  0  0  0  0  0  0  0  0  0
   -9.0461    9.8235   -3.5710 H   0  0  0  0  0  0  0  0  0  0  0  0
   -7.6191    9.9135   -2.7730 H   0  0  0  0  0  0  0  0  0  0  0  0
   -8.9391    9.1145   -0.7940 H   0  0  0  0  0  0  0  0  0  0  0  0
  -10.2351    9.6685   -1.6870 H   0  0  0  0  0  0  0  0  0  0  0  0
   -9.0891   11.0675   -0.0410 H   0  0  0  0  0  0  0  0  0  0  0  0
  -11.0741   11.6725   -1.0080 H   0  0  0  0  0  0  0  0  0  0  0  0
  -10.2061   12.2935   -2.2490 H   0  0  0  0  0  0  0  0  0  0  0  0
  -10.0861   13.2485    0.4870 H   0  0  0  0  0  0  0  0  0  0  0  0
  -10.7731   14.0555   -0.7550 H   0  0  0  0  0  0  0  0  0  0  0  0
   -8.6511   14.2555   -1.8250 H   0  0  0  0  0  0  0  0  0  0  0  0
   -7.5341   12.9115    0.4890 H   0  0  0  0  0  0  0  0  0  0  0  0
   -6.6611   13.4995   -0.7620 H   0  0  0  0  0  0  0  0  0  0  0  0
   -7.6481   11.9275   -2.2410 H   0  0  0  0  0  0  0  0  0  0  0  0
   -7.0071   11.1195   -0.9700 H   0  0  0  0  0  0  0  0  0  0  0  0
   -8.1351    8.6545   -8.0470 H   0  0  0  0  0  0  0  0  0  0  0  0
   -8.3601   10.0105   -7.1150 H   0  0  0  0  0  0  0  0  0  0  0  0
  1  2  1  0
  2  3  1  0
  3  4  2  0
  3  5  1  0
  5  6  1  0
  5 43  1  0
  6  7  1  0
  7  8  1  0
  8  9  2  0
  8 12  1  0
  9 10  1  0
  9 43  1  0
 10 11  2  0
 10 23  1  0
 11 12  1  0
 12 13  1  0
 13 14  1  0
 14 15  1  0
 14 22  1  0
 15 16  1  0
 16 17  1  0
 16 21  1  0
 17 18  1  0
 18 19  1  0
 19 20  1  0
 20 21  1  0
 23 24  2  0
 23 28  1  0
 24 25  1  0
 25 26  2  0
 26 27  1  0
 26 39  1  0
 27 28  2  0
 27 29  1  0
 29 30  1  0
 30 31  1  0
 31 32  1  0
 32 33  1  0
 32 37  1  0
 33 34  1  0
 34 35  1  0
 35 36  1  0
 35 38  1  0
 36 37  1  0
 39 40  1  0
 39 41  1  0
 39 42  1  0
  1 45  1  0
  1 46  1  0
  1 47  1  0
  2 48  1  0
  6 49  1  0
  6 50  1  0
  7 51  1  0
  7 52  1  0
 13 53  1  0
 13 54  1  0
 14 44  1  0
 15 55  1  0
 15 56  1  0
 16 57  1  0
 17 58  1  0
 17 59  1  0
 18 60  1  0
 18 61  1  0
 19 62  1  0
 19 63  1  0
 20 64  1  0
 20 65  1  0
 21 66  1  0
 21 67  1  0
 22 68  1  0
 24 69  1  0
 25 70  1  0
 28 71  1  0
 30 72  1  0
 30 73  1  0
 31 74  1  0
 31 75  1  0
 32 76  1  0
 33 77  1  0
 33 78  1  0
 34 79  1  0
 34 80  1  0
 35 81  1  0
 36 82  1  0
 36 83  1  0
 37 84  1  0
 37 85  1  0
 43 86  1  0
 43 87  1  0
M  CHG  2  16   1  32   1
M  END
>  <LF dG>
-11.297

>  <LF VSscore>
-13.149

>  <LF Rank Score>
-9.14

>  <LF LE>
-0.263

>  <Favorite_cresset>
false

>  <Protein_cresset>
haan-CatS_chainA-aligned_P

>  <MW_cresset>
628.8

>  <#Atoms_cresset>
43

>  <SlogP_cresset>
5

>  <TPSA_cresset>
79.3

>  <Flexibility_cresset>
11.9

>  <#RB_cresset>
13

>  <Rof5_cresset>
2

>  <Filename_cresset>
CatS_142.pdb

>  <Preferred Pose_cresset>
true

>  <_cresset_fieldpoints>
    -5     -12.361084       9.390451      -8.152042     -9.5785
    -5     -10.583084       7.889451      -7.958042     -9.6905
    -5      -3.738084       8.328451      -8.986042     -1.9455
    -5      -5.484084      14.357451      -8.122043     -4.1630
    -5      -7.407084       5.641451      -6.449042     -2.8285
    -5      -7.077085       2.372452      -3.327043     -1.0955
    -6      -7.373084      13.319451     -11.935042      7.9230
    -6     -12.804085      12.553452     -11.099043      5.6925
    -6      -4.376084      12.652452     -11.924043      7.9045
    -6      -5.083084      12.534451      -4.990043      7.3445
    -6       1.316916      13.238451      -6.702043      9.3455
    -6      -0.776084      12.461452     -10.200043      8.3835
    -6      -3.089084      18.120451      -4.760043      3.9355
    -6      -1.664084       6.358451      -5.264042      4.5785
    -6      -7.753084      11.474451      -4.863042      6.3950
    -6      -9.021084      11.234451       1.946958      8.1915
    -7      -7.304084      13.690452     -11.958042     -1.6360
    -7      -7.440084      11.616451      -4.972043     -3.7670
    -7      -5.609084      14.545451      -8.888042     -2.2165
    -7     -10.421084      10.275452     -12.126042     -1.8745
    -7      -4.787085      11.588451      -4.816042     -3.4625
    -7     -10.188084       8.833451      -5.820043     -2.8715
    -7      -9.312084       7.778451     -10.273043     -1.9590
    -7      -6.466084       7.463451     -10.059042     -2.2045
    -7     -11.485085      10.555451      -3.911042     -2.0150
    -7      -7.917084      12.780451      -7.141043     -2.9305
    -7      -2.051085       9.193451      -7.143043     -2.9970
    -7      -0.302084      13.435452      -9.935042     -1.8915
    -7       0.614916      11.682451      -5.270042     -1.7060
    -7       0.485916      18.903450      -5.490043     -1.1175
    -7      -4.944084      14.962452      -6.068042     -2.7130
    -7      -4.320085      16.815451      -6.037043     -1.8720
    -7       1.148916      13.848452      -8.061043     -1.9880
    -7       1.131916      12.919451      -4.668043     -1.8920
    -7      -5.079084       9.793451      -2.315042     -3.6795
    -7      -6.252084      11.583451      -4.468042     -3.5460
    -7      -2.256084       6.811451      -2.301043     -1.7145
    -7      -7.552084       6.130451      -7.189043     -2.6795
    -7      -6.449084       8.897451      -0.026042     -2.7755
    -7      -8.971085      11.813452       2.318957     -2.0500
    -7      -7.739084       7.304451       0.513958     -2.0435
    -7     -11.021084      10.388452       1.361958     -1.8105
    -7     -11.255085      15.355452       1.798957     -1.1550
    -7      -5.795084      14.656451       1.729958     -1.1575
    -7     -10.464085      14.496451      -3.668042     -1.6925
    -7      -5.896084       3.442451       0.236958     -1.1600
    -8      -6.782084      10.520452      -9.175042      5.2235
    -8      -9.479084      13.412451     -10.047043      2.6240
    -8      -2.391084      12.063452      -8.325043      4.7690
    -8      -7.629085       8.442451      -3.698042      5.9935
    -8      -5.670084       7.594451      -4.800043      7.2180
    -8      -8.622085       8.833451      -2.455042      5.6360
    -8      -1.481084      15.436451      -5.460042      5.9485
    -8      -6.441084       8.999452      -6.392043      5.2370
    -8      -5.749084       5.857451      -2.721042      6.2510
    -8      -8.788084      13.245451      -0.706042      6.0695

$$$$
