CatS_180_D
  xed2sdf_05210316543D
 
 98102  0  0  1  0  0  0  0  0999 V2000
   -1.9910   19.0364   -4.4292 C   0  0  0  0  0  0  0  0  0  0  0  0
   -2.1210   17.7564   -3.5772 C   0  0  0  0  0  0  0  0  0  0  0  0
   -3.4350   17.9094   -2.7842 C   0  0  0  0  0  0  0  0  0  0  0  0
   -0.9500   17.7554   -2.5742 C   0  0  0  0  0  0  0  0  0  0  0  0
   -2.1670   16.4884   -4.4882 C   0  0  0  0  0  0  0  0  0  0  0  0
   -1.1380   16.4824   -5.6462 C   0  0  0  0  0  0  0  0  0  0  0  0
   -1.4920   15.3854   -6.6782 C   0  0  0  0  0  0  0  0  0  0  0  0
   -2.0900   14.1554   -6.0322 N   0  3  0  0  0  0  0  0  0  0  0  0
   -1.6400   13.9574   -4.6072 C   0  0  0  0  0  0  0  0  0  0  0  0
   -2.0560   15.1474   -3.7082 C   0  0  0  0  0  0  0  0  0  0  0  0
   -2.0050   12.9154   -6.8922 C   0  0  0  0  0  0  0  0  0  0  0  0
   -2.9700   12.9064   -8.0972 C   0  0  0  0  0  0  0  0  0  0  0  0
   -2.9840   11.5294   -8.7932 C   0  0  0  0  0  0  0  0  0  0  0  0
   -4.0790   10.6974   -8.2822 N   0  0  0  0  0  0  0  0  0  0  0  0
   -5.3800   10.6254   -8.6632 C   0  0  0  0  0  0  0  0  0  0  0  0
   -6.0930    9.7904   -7.9062 C   0  0  0  0  0  0  0  0  0  0  0  0
   -5.1500    9.2994   -6.9762 C   0  0  0  0  0  0  0  0  0  0  0  0
   -3.9800    9.8434   -7.2382 N   0  0  0  0  0  0  0  0  0  0  0  0
   -5.3640    8.3664   -5.8852 C   0  0  0  0  0  0  0  0  0  0  0  0
   -4.3450    7.5284   -5.4702 C   0  0  0  0  0  0  0  0  0  0  0  0
   -4.5460    6.6474   -4.4352 C   0  0  0  0  0  0  0  0  0  0  0  0
   -5.7520    6.5854   -3.7662 C   0  0  0  0  0  0  0  0  0  0  0  0
   -6.7610    7.4484   -4.1672 C   0  0  0  0  0  0  0  0  0  0  0  0
   -6.5750    8.3114   -5.2222 C   0  0  0  0  0  0  0  0  0  0  0  0
   -8.3450    7.5274   -3.3222 S   0  0  0  0  0  0  0  0  0  0  0  0
   -8.7380    9.2974   -3.3262 C   0  0  0  0  0  0  0  0  0  0  0  0
   -8.1450    9.9824   -2.0802 C   0  0  0  0  0  0  0  0  0  0  0  0
   -8.5970   11.4084   -1.8822 N   0  3  0  0  0  0  0  0  0  0  0  0
  -10.0550   11.5284   -1.4992 C   0  0  0  0  0  0  0  0  0  0  0  0
  -10.4760   13.0014   -1.3232 C   0  0  0  0  0  0  0  0  0  0  0  0
   -9.5720   13.6854   -0.2842 C   0  0  0  0  0  0  0  0  0  0  0  0
   -8.1010   13.6044   -0.7312 C   0  0  0  0  0  0  0  0  0  0  0  0
   -7.6850   12.1314   -0.9202 C   0  0  0  0  0  0  0  0  0  0  0  0
   -9.7290   13.0694    0.9528 F   0  0  0  0  0  0  0  0  0  0  0  0
   -9.9490   15.0154   -0.1342 F   0  0  0  0  0  0  0  0  0  0  0  0
   -5.8750    5.5734   -2.6282 C   0  0  0  0  0  0  0  0  0  0  0  0
   -7.1600    5.0434   -2.5642 F   0  0  0  0  0  0  0  0  0  0  0  0
   -5.0050    4.4934   -2.7482 F   0  0  0  0  0  0  0  0  0  0  0  0
   -5.6140    6.1764   -1.4042 F   0  0  0  0  0  0  0  0  0  0  0  0
   -7.5750    9.5384   -8.1412 C   0  0  0  0  0  0  0  0  0  0  0  0
   -7.9570    9.8464   -9.5382 N   0  0  0  0  0  0  0  0  0  0  0  0
   -7.5340   11.2264   -9.8612 C   0  0  0  0  0  0  0  0  0  0  0  0
   -5.9940   11.3814   -9.8272 C   0  0  0  0  0  0  0  0  0  0  0  0
   -9.4230    9.3684  -10.0492 S   0  0  0  0  0  0  0  0  0  0  0  0
   -9.5780    8.0044   -9.6582 O   0  0  0  0  0  0  0  0  0  0  0  0
   -9.4970    9.6774  -11.4402 O   0  0  0  0  0  0  0  0  0  0  0  0
  -10.6600   10.3624   -9.1742 C   0  0  0  0  0  0  0  0  0  0  0  0
   -4.3010   13.2554   -7.6902 O   0  0  0  0  0  0  0  0  0  0  0  0
   -2.6400   13.5904   -8.7482 H   0  0  0  0  0  0  0  0  0  0  0  0
   -1.9630   18.7834   -5.3962 H   0  0  0  0  0  0  0  0  0  0  0  0
   -2.7730   19.6354   -4.2602 H   0  0  0  0  0  0  0  0  0  0  0  0
   -1.1510   19.5214   -4.1822 H   0  0  0  0  0  0  0  0  0  0  0  0
   -4.0480   17.1564   -3.0222 H   0  0  0  0  0  0  0  0  0  0  0  0
   -3.2420   17.8894   -1.8032 H   0  0  0  0  0  0  0  0  0  0  0  0
   -3.8670   18.7814   -3.0132 H   0  0  0  0  0  0  0  0  0  0  0  0
   -0.4180   16.9164   -2.6952 H   0  0  0  0  0  0  0  0  0  0  0  0
   -0.3650   18.5504   -2.7362 H   0  0  0  0  0  0  0  0  0  0  0  0
   -1.3060   17.7974   -1.6402 H   0  0  0  0  0  0  0  0  0  0  0  0
   -3.0800   16.5544   -4.8912 H   0  0  0  0  0  0  0  0  0  0  0  0
   -0.2260   16.3084   -5.2762 H   0  0  0  0  0  0  0  0  0  0  0  0
   -1.1580   17.3724   -6.1022 H   0  0  0  0  0  0  0  0  0  0  0  0
   -0.6600   15.1214   -7.1662 H   0  0  0  0  0  0  0  0  0  0  0  0
   -2.1760   15.7634   -7.3012 H   0  0  0  0  0  0  0  0  0  0  0  0
   -2.9820   14.3294   -5.9642 H   0  0  0  0  0  0  0  0  0  0  0  0
   -0.6440   13.8664   -4.5902 H   0  0  0  0  0  0  0  0  0  0  0  0
   -2.0770   13.1314   -4.2532 H   0  0  0  0  0  0  0  0  0  0  0  0
   -2.9430   14.9434   -3.2952 H   0  0  0  0  0  0  0  0  0  0  0  0
   -1.3420   15.2624   -3.0172 H   0  0  0  0  0  0  0  0  0  0  0  0
   -2.2090   12.1214   -6.3192 H   0  0  0  0  0  0  0  0  0  0  0  0
   -1.0790   12.8924   -7.2692 H   0  0  0  0  0  0  0  0  0  0  0  0
   -2.1130   11.0674   -8.6272 H   0  0  0  0  0  0  0  0  0  0  0  0
   -3.1200   11.6684   -9.7742 H   0  0  0  0  0  0  0  0  0  0  0  0
   -3.4570    7.5644   -5.9272 H   0  0  0  0  0  0  0  0  0  0  0  0
   -3.8020    6.0384   -4.1602 H   0  0  0  0  0  0  0  0  0  0  0  0
   -7.3260    8.9044   -5.5132 H   0  0  0  0  0  0  0  0  0  0  0  0
   -9.7310    9.4164   -3.3292 H   0  0  0  0  0  0  0  0  0  0  0  0
   -8.3420    9.7154   -4.1442 H   0  0  0  0  0  0  0  0  0  0  0  0
   -7.1480    9.9764   -2.1622 H   0  0  0  0  0  0  0  0  0  0  0  0
   -8.4710    9.4674   -1.2882 H   0  0  0  0  0  0  0  0  0  0  0  0
   -8.5030   11.8304   -2.6842 H   0  0  0  0  0  0  0  0  0  0  0  0
  -10.2070   11.0404   -0.6402 H   0  0  0  0  0  0  0  0  0  0  0  0
  -10.6050   11.1324   -2.2342 H   0  0  0  0  0  0  0  0  0  0  0  0
  -11.4270   13.0414   -1.0172 H   0  0  0  0  0  0  0  0  0  0  0  0
  -10.3850   13.4754   -2.1992 H   0  0  0  0  0  0  0  0  0  0  0  0
   -7.5190   14.0294   -0.0382 H   0  0  0  0  0  0  0  0  0  0  0  0
   -7.9970   14.0864   -1.6012 H   0  0  0  0  0  0  0  0  0  0  0  0
   -6.7500   12.0994   -1.2732 H   0  0  0  0  0  0  0  0  0  0  0  0
   -7.7480   11.6764   -0.0322 H   0  0  0  0  0  0  0  0  0  0  0  0
   -8.1070   10.1144   -7.5212 H   0  0  0  0  0  0  0  0  0  0  0  0
   -7.7620    8.5714   -7.9692 H   0  0  0  0  0  0  0  0  0  0  0  0
   -7.9390   11.8534   -9.1972 H   0  0  0  0  0  0  0  0  0  0  0  0
   -7.8450   11.4354  -10.7882 H   0  0  0  0  0  0  0  0  0  0  0  0
   -5.6120   11.0314  -10.6822 H   0  0  0  0  0  0  0  0  0  0  0  0
   -5.7830   12.3524   -9.7152 H   0  0  0  0  0  0  0  0  0  0  0  0
  -11.1500   10.9294   -9.8362 H   0  0  0  0  0  0  0  0  0  0  0  0
  -11.3060    9.7604   -8.7042 H   0  0  0  0  0  0  0  0  0  0  0  0
  -10.2080   10.9454   -8.4992 H   0  0  0  0  0  0  0  0  0  0  0  0
   -4.5810   12.7354   -6.8752 H   0  0  0  0  0  0  0  0  0  0  0  0
  1  2  1  0
  2  3  1  0
  2  4  1  0
  2  5  1  0
  5  6  1  0
  5 10  1  0
  6  7  1  0
  7  8  1  0
  8  9  1  0
  8 11  1  0
  9 10  1  0
 11 12  1  0
 12 13  1  0
 12 48  1  0
 13 14  1  0
 14 15  1  0
 14 18  1  0
 15 16  2  0
 15 43  1  0
 16 17  1  0
 16 40  1  0
 17 18  2  0
 17 19  1  0
 19 20  2  0
 19 24  1  0
 20 21  1  0
 21 22  2  0
 22 23  1  0
 22 36  1  0
 23 24  2  0
 23 25  1  0
 25 26  1  0
 26 27  1  0
 27 28  1  0
 28 29  1  0
 28 33  1  0
 29 30  1  0
 30 31  1  0
 31 32  1  0
 31 34  1  0
 31 35  1  0
 32 33  1  0
 36 37  1  0
 36 38  1  0
 36 39  1  0
 40 41  1  0
 41 42  1  0
 41 44  1  0
 42 43  1  0
 44 45  2  0
 44 46  2  0
 44 47  1  0
  1 50  1  0
  1 51  1  0
  1 52  1  0
  3 53  1  0
  3 54  1  0
  3 55  1  0
  4 56  1  0
  4 57  1  0
  4 58  1  0
  5 59  1  0
  6 60  1  0
  6 61  1  0
  7 62  1  0
  7 63  1  0
  8 64  1  0
  9 65  1  0
  9 66  1  0
 10 67  1  0
 10 68  1  0
 11 69  1  0
 11 70  1  0
 12 49  1  0
 13 71  1  0
 13 72  1  0
 20 73  1  0
 21 74  1  0
 24 75  1  0
 26 76  1  0
 26 77  1  0
 27 78  1  0
 27 79  1  0
 28 80  1  0
 29 81  1  0
 29 82  1  0
 30 83  1  0
 30 84  1  0
 32 85  1  0
 32 86  1  0
 33 87  1  0
 33 88  1  0
 40 89  1  0
 40 90  1  0
 42 91  1  0
 42 92  1  0
 43 93  1  0
 43 94  1  0
 47 95  1  0
 47 96  1  0
 47 97  1  0
 48 98  1  0
M  CHG  2   8   1  28   1
M  END
>  <LF dG>
-12.689

>  <LF VSscore>
-14.455

>  <LF Rank Score>
-11.085

>  <LF LE>
-0.264

>  <Favorite_cresset>
false

>  <Protein_cresset>
haan-CatS_chainA-aligned_P

>  <MW_cresset>
723.9

>  <#Atoms_cresset>
48

>  <SlogP_cresset>
6.2

>  <TPSA_cresset>
84.3

>  <Flexibility_cresset>
12.4

>  <#RB_cresset>
13

>  <Rof5_cresset>
2

>  <Filename_cresset>
CatS_180.pdb

>  <Preferred Pose_cresset>
true

>  <_cresset_fieldpoints>
    -5      -7.203014       7.860405     -10.762180     -5.3750
    -5      -9.304014       7.305405     -11.808180     -5.5215
    -6      -4.769014      13.201405      -5.145180     12.9530
    -6      -2.346014      20.649405      -1.566180      3.5840
    -6       1.182985      18.495405      -5.097180      4.2365
    -6      -3.899014      13.016405     -11.393181      7.2710
    -6       1.236985      15.144404      -3.526180      4.8620
    -6      -1.544014       6.240405      -4.727180      4.5745
    -6      -8.428015      12.076405      -4.735180     14.0515
    -6      -0.486015      12.701405      -9.797180      7.7295
    -6      -8.836015       9.690405       1.047820      4.0190
    -7      -3.945014      17.827404      -6.911180     -2.4400
    -7       1.252985      18.496405      -4.909180     -2.2075
    -7      -2.105015      20.651405      -1.579180     -1.9190
    -7      -4.816015      15.566404      -6.827180     -2.7415
    -7      -4.110014      13.803405     -11.072180     -1.8620
    -7      -2.565015      15.603405      -0.584180     -2.1835
    -7      -4.380014      11.695405      -4.925180     -3.7185
    -7       1.332985      15.273405      -3.560180     -2.3685
    -7       1.327985      13.793405      -6.199181     -2.0420
    -7      -0.145015      13.946404      -9.518181     -1.8340
    -7      -5.112015      14.798405      -4.931180     -2.6790
    -7      -6.464015       8.202404     -10.961180     -2.7525
    -7      -1.834014       9.575405      -6.368180     -2.9765
    -7      -2.419015       6.649405      -1.971180     -1.7095
    -7      -6.462015      11.507404      -4.513180     -3.8530
    -7      -9.979014       8.688404      -6.336180     -3.4480
    -7     -10.977015       8.469404      -0.941180     -2.1955
    -7      -8.962015       9.787405       1.230820     -2.2680
    -7      -8.083014       7.445405       0.230820     -2.0660
    -7      -8.655014      13.784405      -4.116180     -2.2390
    -7     -12.523014      11.319405       0.738820     -1.5615
    -7     -12.416015      15.366405      -2.332180     -1.2000
    -7     -12.952015      13.821404       0.929820     -1.3950
    -7      -7.563015      15.194405       2.279819     -1.3970
    -7      -4.732015       9.680405      -2.642180     -3.3670
    -7      -6.689014      12.801405       2.204820     -1.5550
    -7      -5.355015      14.820404      -2.357180     -2.3540
    -7      -6.294014       3.283405       0.121819     -1.1605
    -7      -7.229014       6.048405      -7.431180     -2.7530
    -7     -10.032015      11.969404     -12.051180     -1.8675
    -7      -6.862015      12.743404      -6.681180     -2.9520
    -8      -2.138015      17.795404      -3.588180      6.5380
    -8      -2.207015      12.314404      -7.981180      4.7715
    -8      -5.561015       7.479404      -4.819180      7.2260
    -8      -6.511014      10.746405      -8.868180      5.3450
    -8      -7.669014       8.302404      -3.992180      6.1015
    -8      -6.205015       8.911405      -6.498180      5.3150
    -8      -8.169015       8.761404      -3.024180      5.7895
    -8      -5.856015       5.720405      -2.787180      6.2560
    -8      -9.457014      13.436405      -0.509181      6.4540
    -8     -10.199015      10.152405      -9.346180      4.1630
    -8      -6.344015       9.682405      -7.738180      4.9450
    -8      -1.767015      17.543404      -4.486180      6.3570

$$$$
