CatS_52_D
  xed2sdf_05210316543D
 
109115  0  0  0  0  0  0  0  0999 V2000
  -10.1818    9.0368   -9.9840 C   0  0  0  0  0  0  0  0  0  0  0  0
   -9.9548   10.6178   -9.1280 S   0  0  0  0  0  0  0  0  0  0  0  0
  -10.4058   11.6668   -9.9850 O   0  0  0  0  0  0  0  0  0  0  0  0
  -10.5478   10.4988   -7.8350 O   0  0  0  0  0  0  0  0  0  0  0  0
   -8.3498   10.8028   -8.9280 N   0  0  0  0  0  0  0  0  0  0  0  0
   -7.5368   10.8588  -10.1610 C   0  0  0  0  0  0  0  0  0  0  0  0
   -6.1298   11.4438   -9.8920 C   0  0  0  0  0  0  0  0  0  0  0  0
   -5.4678   10.6868   -8.7550 C   0  0  0  0  0  0  0  0  0  0  0  0
   -6.1888    9.9668   -7.8920 C   0  0  0  0  0  0  0  0  0  0  0  0
   -5.2108    9.3768   -7.0580 C   0  0  0  0  0  0  0  0  0  0  0  0
   -4.0268    9.7928   -7.4510 N   0  0  0  0  0  0  0  0  0  0  0  0
   -4.1348   10.6368   -8.5010 N   0  0  0  0  0  0  0  0  0  0  0  0
   -3.0108   11.3758   -9.0960 C   0  0  0  0  0  0  0  0  0  0  0  0
   -2.1558   12.1218   -8.0530 C   0  0  0  0  0  0  0  0  0  0  0  0
   -2.9868   12.7118   -6.8900 C   0  0  0  0  0  0  0  0  0  0  0  0
   -2.4728   13.9678   -6.2270 N   0  3  0  0  0  0  0  0  0  0  0  0
   -3.5898   14.9758   -6.0850 C   0  0  0  0  0  0  0  0  0  0  0  0
   -3.1218   16.2848   -5.4190 C   0  0  0  0  0  0  0  0  0  0  0  0
   -2.4988   15.9718   -4.0430 C   0  0  0  0  0  0  0  0  0  0  0  0
   -1.2978   15.0308   -4.2470 C   0  0  0  0  0  0  0  0  0  0  0  0
   -1.7558   13.7188   -4.9180 C   0  0  0  0  0  0  0  0  0  0  0  0
   -2.1258   17.1578   -3.2530 N   0  0  0  0  0  0  0  0  0  0  0  0
   -0.7278   17.4738   -2.9430 C   0  0  0  0  0  0  0  0  0  0  0  0
   -0.8688   18.9398   -2.4940 C   0  0  0  0  0  0  0  0  0  0  0  0
   -2.3238   19.1068   -2.0260 C   0  0  0  0  0  0  0  0  0  0  0  0
   -3.0378   18.0148   -2.7770 C   0  0  0  0  0  0  0  0  0  0  0  0
   -4.2498   17.9478   -2.9240 O   0  0  0  0  0  0  0  0  0  0  0  0
   -5.3718    8.4398   -5.9610 C   0  0  0  0  0  0  0  0  0  0  0  0
   -4.3088    7.6198   -5.6340 C   0  0  0  0  0  0  0  0  0  0  0  0
   -4.4118    6.7118   -4.6090 C   0  0  0  0  0  0  0  0  0  0  0  0
   -5.5678    6.5958   -3.8640 C   0  0  0  0  0  0  0  0  0  0  0  0
   -6.6228    7.4438   -4.1730 C   0  0  0  0  0  0  0  0  0  0  0  0
   -6.5328    8.3408   -5.2140 C   0  0  0  0  0  0  0  0  0  0  0  0
   -8.1468    7.4488   -3.2160 S   0  0  0  0  0  0  0  0  0  0  0  0
   -8.7858    9.1498   -3.1230 C   0  0  0  0  0  0  0  0  0  0  0  0
   -7.9318   10.0788   -2.2350 C   0  0  0  0  0  0  0  0  0  0  0  0
   -8.5148   11.4538   -2.0290 N   0  3  0  0  0  0  0  0  0  0  0  0
   -7.9038   12.2078   -0.8710 C   0  0  0  0  0  0  0  0  0  0  0  0
   -8.5038   13.6248   -0.7600 C   0  0  0  0  0  0  0  0  0  0  0  0
  -10.0378   13.5498   -0.6030 C   0  0  0  0  0  0  0  0  0  0  0  0
  -10.6338   12.8068   -1.8170 C   0  0  0  0  0  0  0  0  0  0  0  0
  -10.0188   11.3968   -1.9340 C   0  0  0  0  0  0  0  0  0  0  0  0
  -10.6408   14.9678   -0.5000 C   0  0  0  0  0  0  0  0  0  0  0  0
  -11.8068   15.1128    0.4670 C   0  0  0  0  0  0  0  0  0  0  0  0
  -12.1788   14.0438    1.2530 C   0  0  0  0  0  0  0  0  0  0  0  0
  -13.2398   14.1548    2.1220 C   0  0  0  0  0  0  0  0  0  0  0  0
  -13.9358   15.3388    2.2090 C   0  0  0  0  0  0  0  0  0  0  0  0
  -13.5668   16.4098    1.4280 C   0  0  0  0  0  0  0  0  0  0  0  0
  -12.5048   16.2968    0.5600 C   0  0  0  0  0  0  0  0  0  0  0  0
   -5.5448    5.5438   -2.7560 C   0  0  0  0  0  0  0  0  0  0  0  0
   -6.8038    5.0078   -2.5000 F   0  0  0  0  0  0  0  0  0  0  0  0
   -5.0888    6.0488   -1.5440 F   0  0  0  0  0  0  0  0  0  0  0  0
   -4.7128    4.4878   -3.1080 F   0  0  0  0  0  0  0  0  0  0  0  0
   -7.7088    9.8798   -7.9590 C   0  0  0  0  0  0  0  0  0  0  0  0
   -9.2858    8.6228  -10.1480 H   0  0  0  0  0  0  0  0  0  0  0  0
  -10.7378    8.4248   -9.4210 H   0  0  0  0  0  0  0  0  0  0  0  0
  -10.6468    9.1898  -10.8560 H   0  0  0  0  0  0  0  0  0  0  0  0
   -8.0048   11.4298  -10.8340 H   0  0  0  0  0  0  0  0  0  0  0  0
   -7.4248    9.9248  -10.5020 H   0  0  0  0  0  0  0  0  0  0  0  0
   -6.2108   12.4098   -9.6480 H   0  0  0  0  0  0  0  0  0  0  0  0
   -5.5718   11.3528  -10.7170 H   0  0  0  0  0  0  0  0  0  0  0  0
   -3.3758   12.0418   -9.7470 H   0  0  0  0  0  0  0  0  0  0  0  0
   -2.4178   10.7058   -9.5410 H   0  0  0  0  0  0  0  0  0  0  0  0
   -1.6728   12.8688   -8.5120 H   0  0  0  0  0  0  0  0  0  0  0  0
   -1.5228   11.4558   -7.6570 H   0  0  0  0  0  0  0  0  0  0  0  0
   -3.0578   12.0058   -6.1840 H   0  0  0  0  0  0  0  0  0  0  0  0
   -3.8518   12.9848   -7.3100 H   0  0  0  0  0  0  0  0  0  0  0  0
   -1.8628   14.3408   -6.7900 H   0  0  0  0  0  0  0  0  0  0  0  0
   -4.3188   14.5728   -5.5310 H   0  0  0  0  0  0  0  0  0  0  0  0
   -3.9128   15.2018   -7.0040 H   0  0  0  0  0  0  0  0  0  0  0  0
   -3.9028   16.8988   -5.3010 H   0  0  0  0  0  0  0  0  0  0  0  0
   -2.4368   16.7268   -5.9990 H   0  0  0  0  0  0  0  0  0  0  0  0
   -3.2068   15.5248   -3.4960 H   0  0  0  0  0  0  0  0  0  0  0  0
   -0.8828   14.8248   -3.3610 H   0  0  0  0  0  0  0  0  0  0  0  0
   -0.6278   15.4808   -4.8380 H   0  0  0  0  0  0  0  0  0  0  0  0
   -0.9548   13.1448   -5.0910 H   0  0  0  0  0  0  0  0  0  0  0  0
   -2.3958   13.2648   -4.2980 H   0  0  0  0  0  0  0  0  0  0  0  0
   -0.1398   17.3848   -3.7470 H   0  0  0  0  0  0  0  0  0  0  0  0
   -0.3028   16.8698   -2.2690 H   0  0  0  0  0  0  0  0  0  0  0  0
   -0.6738   19.5578   -3.2560 H   0  0  0  0  0  0  0  0  0  0  0  0
   -0.2238   19.1608   -1.7620 H   0  0  0  0  0  0  0  0  0  0  0  0
   -2.6818   20.0088   -2.2690 H   0  0  0  0  0  0  0  0  0  0  0  0
   -2.4328   19.0428   -1.0340 H   0  0  0  0  0  0  0  0  0  0  0  0
   -3.4558    7.6878   -6.1500 H   0  0  0  0  0  0  0  0  0  0  0  0
   -3.6328    6.1228   -4.3970 H   0  0  0  0  0  0  0  0  0  0  0  0
   -7.3138    8.9268   -5.4330 H   0  0  0  0  0  0  0  0  0  0  0  0
   -9.7148    9.1198   -2.7540 H   0  0  0  0  0  0  0  0  0  0  0  0
   -8.7618    9.5248   -4.0500 H   0  0  0  0  0  0  0  0  0  0  0  0
   -7.0318   10.1778   -2.6600 H   0  0  0  0  0  0  0  0  0  0  0  0
   -7.8888    9.6498   -1.3330 H   0  0  0  0  0  0  0  0  0  0  0  0
   -8.3198   11.9288   -2.7830 H   0  0  0  0  0  0  0  0  0  0  0  0
   -6.9158   12.2778   -1.0080 H   0  0  0  0  0  0  0  0  0  0  0  0
   -8.1018   11.7108   -0.0260 H   0  0  0  0  0  0  0  0  0  0  0  0
   -8.2798   14.1448   -1.5840 H   0  0  0  0  0  0  0  0  0  0  0  0
   -8.1188   14.0778    0.0450 H   0  0  0  0  0  0  0  0  0  0  0  0
  -10.2588   13.0538    0.2360 H   0  0  0  0  0  0  0  0  0  0  0  0
  -10.4398   13.3238   -2.6510 H   0  0  0  0  0  0  0  0  0  0  0  0
  -11.6218   12.7208   -1.6930 H   0  0  0  0  0  0  0  0  0  0  0  0
  -10.2748   10.8608   -1.1290 H   0  0  0  0  0  0  0  0  0  0  0  0
  -10.3698   10.9718   -2.7690 H   0  0  0  0  0  0  0  0  0  0  0  0
  -10.9568   15.2378   -1.4100 H   0  0  0  0  0  0  0  0  0  0  0  0
   -9.9128   15.5518   -0.1410 H   0  0  0  0  0  0  0  0  0  0  0  0
  -11.6748   13.1828    1.1930 H   0  0  0  0  0  0  0  0  0  0  0  0
  -13.5058   13.3758    2.6900 H   0  0  0  0  0  0  0  0  0  0  0  0
  -14.7088   15.4198    2.8380 H   0  0  0  0  0  0  0  0  0  0  0  0
  -14.0708   17.2718    1.4920 H   0  0  0  0  0  0  0  0  0  0  0  0
  -12.2388   17.0778   -0.0060 H   0  0  0  0  0  0  0  0  0  0  0  0
   -7.9578    8.9438   -8.2100 H   0  0  0  0  0  0  0  0  0  0  0  0
   -8.0428   10.1488   -7.0560 H   0  0  0  0  0  0  0  0  0  0  0  0
  1  2  1  0
  2  3  2  0
  2  4  2  0
  2  5  1  0
  5  6  1  0
  5 54  1  0
  6  7  1  0
  7  8  1  0
  8  9  2  0
  8 12  1  0
  9 10  1  0
  9 54  1  0
 10 11  2  0
 10 28  1  0
 11 12  1  0
 12 13  1  0
 13 14  1  0
 14 15  1  0
 15 16  1  0
 16 17  1  0
 16 21  1  0
 17 18  1  0
 18 19  1  0
 19 20  1  0
 19 22  1  0
 20 21  1  0
 22 23  1  0
 22 26  1  0
 23 24  1  0
 24 25  1  0
 25 26  1  0
 26 27  2  0
 28 29  2  0
 28 33  1  0
 29 30  1  0
 30 31  2  0
 31 32  1  0
 31 50  1  0
 32 33  2  0
 32 34  1  0
 34 35  1  0
 35 36  1  0
 36 37  1  0
 37 38  1  0
 37 42  1  0
 38 39  1  0
 39 40  1  0
 40 41  1  0
 40 43  1  0
 41 42  1  0
 43 44  1  0
 44 45  2  0
 44 49  1  0
 45 46  1  0
 46 47  2  0
 47 48  1  0
 48 49  2  0
 50 51  1  0
 50 52  1  0
 50 53  1  0
  1 55  1  0
  1 56  1  0
  1 57  1  0
  6 58  1  0
  6 59  1  0
  7 60  1  0
  7 61  1  0
 13 62  1  0
 13 63  1  0
 14 64  1  0
 14 65  1  0
 15 66  1  0
 15 67  1  0
 16 68  1  0
 17 69  1  0
 17 70  1  0
 18 71  1  0
 18 72  1  0
 19 73  1  0
 20 74  1  0
 20 75  1  0
 21 76  1  0
 21 77  1  0
 23 78  1  0
 23 79  1  0
 24 80  1  0
 24 81  1  0
 25 82  1  0
 25 83  1  0
 29 84  1  0
 30 85  1  0
 33 86  1  0
 35 87  1  0
 35 88  1  0
 36 89  1  0
 36 90  1  0
 37 91  1  0
 38 92  1  0
 38 93  1  0
 39 94  1  0
 39 95  1  0
 40 96  1  0
 41 97  1  0
 41 98  1  0
 42 99  1  0
 42100  1  0
 43101  1  0
 43102  1  0
 45103  1  0
 46104  1  0
 47105  1  0
 48106  1  0
 49107  1  0
 54108  1  0
 54109  1  0
M  CHG  2  16   1  37   1
M  END
>  <LF dG>
-12.371

>  <LF VSscore>
-14.361

>  <LF Rank Score>
-9.85

>  <LF LE>
-0.229

>  <Favorite_cresset>
false

>  <Protein_cresset>
haan-CatS_chainA-aligned_P

>  <MW_cresset>
789

>  <#Atoms_cresset>
54

>  <SlogP_cresset>
6.4

>  <TPSA_cresset>
84.4

>  <Flexibility_cresset>
13.9

>  <#RB_cresset>
14

>  <Rof5_cresset>
2

>  <Filename_cresset>
CatS_52.pdb

>  <Preferred Pose_cresset>
true

>  <_cresset_fieldpoints>
    -5     -10.744793      13.011847      -8.250962     -5.3775
    -5     -14.550793      14.322847      -0.803962     -4.1305
    -5      -3.280793       8.309848      -8.785962     -2.0295
    -5      -3.916793      10.502848      -4.417962     -1.7270
    -5      -5.542793      19.002848      -2.354962     -8.8695
    -5      -5.577793      16.903847      -3.442962     -8.4520
    -5      -6.474793       5.148848      -6.491962     -1.1670
    -5     -11.013793      16.124847       3.333038     -4.1555
    -5      -7.694793       6.024848       0.137038     -1.2570
    -6      -6.148793      10.191848     -12.725962      7.0830
    -6      -4.063793      12.981848     -11.620962      8.5345
    -6      -7.773793      11.545848      -4.865962      7.3505
    -6     -11.111794       9.664848      -4.784962      3.2270
    -6      -0.381793      14.999847      -7.965962     10.2630
    -6       1.672207      15.890848      -4.014962      7.4025
    -6      -1.493793       6.137848      -5.328962      4.3005
    -6      -9.384793       7.903848      -6.684962      6.0225
    -6     -11.029793      11.021848       1.301038      3.9630
    -6      -8.293793       8.778848     -12.331963      7.4050
    -6     -11.029793      17.849848      -1.760962      2.6465
    -6     -15.381792      13.375848       4.292037      2.6800
    -6     -16.042793      17.534847       3.080038      2.5985
    -6     -13.507793      19.278847       0.112038      2.5585
    -7      -7.565793       6.462848      -7.631962     -2.7755
    -7     -10.075793      11.356848     -12.377962     -1.8685
    -7      -7.791793      13.023848      -7.449962     -2.7975
    -7      -6.765793       7.452848      -9.977962     -2.6360
    -7      -1.858793       8.820848      -7.558962     -2.8195
    -7      -4.491793      14.376848      -9.394962     -2.8035
    -7       0.275207      11.139848      -9.956963     -1.0940
    -7       0.548207      13.955848      -7.178962     -2.1415
    -7      -0.123793      17.662848      -6.257962     -2.1610
    -7      -0.260793      16.141848      -7.284962     -2.2130
    -7      -4.592793       9.486848      -2.476962     -3.2910
    -7       1.817207      15.467848      -3.525962     -1.5635
    -7      -2.418793      15.738848      -0.833962     -2.4390
    -7      -1.953793       9.791847      -5.699962     -2.9385
    -7      -0.876793      22.102848      -1.721962     -1.0740
    -7      -2.264793      19.349848      -5.416962     -2.5690
    -7      -0.840793      21.726849      -0.730962     -1.0715
    -7      -5.722793      15.966847      -3.299962     -2.3140
    -7      -6.905793       5.308848      -6.709962     -2.5575
    -7      -1.961793       6.459848      -2.456962     -1.6765
    -7      -7.219793       7.727848       0.193038     -2.1280
    -7     -10.256793      10.928848       1.454038     -2.6565
    -7      -8.420793      13.938848      -4.171962     -2.2800
    -7      -9.340793       9.536848       0.787038     -2.2715
    -7      -9.301793      15.472848      -3.524962     -2.0615
    -7     -13.889793      13.999847      -1.751962     -2.4140
    -7     -12.394793      10.943848       0.344038     -2.4140
    -7      -9.823793       8.613848       0.045038     -2.2705
    -7     -10.272793      18.017847      -1.375962     -1.5370
    -7     -16.366793      13.045848       2.772038     -0.9590
    -7      -9.119793      14.168848       2.504038     -2.5005
    -7     -15.602793      13.394848       4.440038     -0.9690
    -7     -16.218794      17.681847       3.126038     -0.9685
    -7     -14.589793      17.937847       4.268038     -0.9565
    -7     -14.070793      18.891848      -0.862962     -0.9950
    -7     -13.487793      19.447847      -0.129962     -0.9970
    -7      -5.480793       3.015848      -0.183962     -1.1520
    -7      -9.965793       8.553848      -6.276962     -3.5725
    -7      -7.051793      11.584847      -5.001962     -4.1285
    -8      -9.937793       9.461847      -9.742962      4.1860
    -8      -6.534793      10.529848      -9.129962      5.4400
    -8      -5.471793       7.522848      -4.903962      7.2210
    -8      -6.213793       9.011847      -6.447962      5.2385
    -8      -2.706793      12.227848      -8.045962      4.9345
    -8      -6.411793       9.856848      -7.843962      4.9745
    -8      -2.444793      15.276848      -4.873962      5.8115
    -8      -7.564793       8.239847      -3.929962      5.9015
    -8      -8.026793       8.721848      -3.036962      5.7385
    -8      -1.493793      18.658848      -2.372962      5.1735
    -8      -9.948793      13.781848      -1.000962      6.2065
    -8      -9.576793      13.008848      -1.133962      6.1110
    -8     -12.867793      15.222848       1.333038      7.2015
    -8     -11.081793      14.204847       0.098038      6.1560
    -8     -11.724792      15.031848       0.419038      5.7820
    -8      -5.522793       5.686848      -2.921962      6.2555

$$$$
