CatS_131_D
  xed2sdf_05210316543D
 
100105  0  0  1  0  0  0  0  0999 V2000
   -4.5271    7.5663   -5.5929 C   0  0  0  0  0  0  0  0  0  0  0  0
   -4.7581    6.6823   -4.5659 C   0  0  0  0  0  0  0  0  0  0  0  0
   -5.8911    6.7693   -3.7839 C   0  0  0  0  0  0  0  0  0  0  0  0
   -6.7951    7.7853   -4.0629 C   0  0  0  0  0  0  0  0  0  0  0  0
   -6.5721    8.6643   -5.0989 C   0  0  0  0  0  0  0  0  0  0  0  0
   -5.4341    8.5683   -5.8779 C   0  0  0  0  0  0  0  0  0  0  0  0
   -5.1631    9.4933   -6.9659 C   0  0  0  0  0  0  0  0  0  0  0  0
   -6.0531   10.0283   -7.9249 C   0  0  0  0  0  0  0  0  0  0  0  0
   -5.2721   10.8153   -8.6709 C   0  0  0  0  0  0  0  0  0  0  0  0
   -3.9801   10.8223   -8.2509 N   0  0  0  0  0  0  0  0  0  0  0  0
   -3.9631    9.9773   -7.1979 N   0  0  0  0  0  0  0  0  0  0  0  0
   -2.8241   11.6153   -8.6939 C   0  0  0  0  0  0  0  0  0  0  0  0
   -2.7871   12.9673   -7.9569 C   0  0  0  0  0  0  0  0  0  0  0  0
   -2.4171   12.7543   -6.4729 C   0  0  0  0  0  0  0  0  0  0  0  0
   -1.3611   13.6983   -5.9449 N   0  3  0  0  0  0  0  0  0  0  0  0
   -1.3031   13.7613   -4.4349 C   0  0  0  0  0  0  0  0  0  0  0  0
   -2.0111   15.0133   -3.8649 C   0  0  0  0  0  0  0  0  0  0  0  0
   -3.1441   15.4733   -4.8009 C   0  0  0  0  0  0  0  0  0  0  0  0
   -2.5821   15.9023   -6.1749 C   0  0  0  0  0  0  0  0  0  0  0  0
   -1.3591   15.0543   -6.6059 C   0  0  0  0  0  0  0  0  0  0  0  0
   -4.0531   13.6273   -8.0999 O   0  0  0  0  0  0  0  0  0  0  0  0
   -5.8241   11.6053   -9.8449 C   0  0  0  0  0  0  0  0  0  0  0  0
   -7.0681   10.9083  -10.4359 C   0  0  0  0  0  0  0  0  0  0  0  0
   -8.0401   10.4273   -9.4299 N   0  0  0  0  0  0  0  0  0  0  0  0
   -7.5481    9.8443   -8.1549 C   0  0  0  0  0  0  0  0  0  0  0  0
   -9.3651   10.4953   -9.7219 C   0  0  0  0  0  0  0  0  0  0  0  0
   -9.7591   11.0023  -10.7789 O   0  0  0  0  0  0  0  0  0  0  0  0
  -10.2441    9.9893   -8.8269 N   0  0  0  0  0  0  0  0  0  0  0  0
  -11.6881   10.0833   -9.0769 C   0  0  0  0  0  0  0  0  0  0  0  0
  -12.2921    8.6653   -9.1349 C   0  0  0  0  0  0  0  0  0  0  0  0
  -13.8141    8.7453   -9.3689 C   0  0  0  0  0  0  0  0  0  0  0  0
  -14.4831    9.5603   -8.2449 C   0  0  0  0  0  0  0  0  0  0  0  0
  -13.8801   10.9783   -8.1839 C   0  0  0  0  0  0  0  0  0  0  0  0
  -12.3581   10.8973   -7.9509 C   0  0  0  0  0  0  0  0  0  0  0  0
   -8.2941    8.0173   -3.0929 S   0  0  0  0  0  0  0  0  0  0  0  0
   -8.0681    9.5003   -2.0699 C   0  0  0  0  0  0  0  0  0  0  0  0
   -7.8431   10.7523   -2.9399 C   0  0  0  0  0  0  0  0  0  0  0  0
   -8.3801   12.0103   -2.3039 N   0  3  0  0  0  0  0  0  0  0  0  0
   -7.7061   12.3163   -0.9909 C   0  0  0  0  0  0  0  0  0  0  0  0
   -8.0651   13.7343   -0.4779 C   0  0  0  0  0  0  0  0  0  0  0  0
   -9.4371   14.2143   -1.0029 C   0  0  0  0  0  0  0  0  0  0  0  0
  -10.4071   13.0273   -1.1389 C   0  0  0  0  0  0  0  0  0  0  0  0
   -9.8911   12.0373   -2.2099 C   0  0  0  0  0  0  0  0  0  0  0  0
   -9.9701   15.1533   -0.1269 F   0  0  0  0  0  0  0  0  0  0  0  0
   -6.0521    5.7353   -2.6709 C   0  0  0  0  0  0  0  0  0  0  0  0
   -5.2141    4.6333   -2.8079 F   0  0  0  0  0  0  0  0  0  0  0  0
   -5.7801    6.2963   -1.4279 F   0  0  0  0  0  0  0  0  0  0  0  0
   -7.3531    5.2453   -2.6319 F   0  0  0  0  0  0  0  0  0  0  0  0
   -2.0851   13.5533   -8.3619 H   0  0  0  0  0  0  0  0  0  0  0  0
   -3.6931    7.4823   -6.1399 H   0  0  0  0  0  0  0  0  0  0  0  0
   -4.0901    5.9603   -4.3829 H   0  0  0  0  0  0  0  0  0  0  0  0
   -7.2421    9.3823   -5.2899 H   0  0  0  0  0  0  0  0  0  0  0  0
   -2.8891   11.7753   -9.6789 H   0  0  0  0  0  0  0  0  0  0  0  0
   -1.9861   11.1113   -8.4849 H   0  0  0  0  0  0  0  0  0  0  0  0
   -2.0841   11.8183   -6.3649 H   0  0  0  0  0  0  0  0  0  0  0  0
   -3.2471   12.9373   -5.9459 H   0  0  0  0  0  0  0  0  0  0  0  0
   -0.5681   13.3243   -6.1949 H   0  0  0  0  0  0  0  0  0  0  0  0
   -0.3451   13.7743   -4.1489 H   0  0  0  0  0  0  0  0  0  0  0  0
   -1.7791   12.9573   -4.0789 H   0  0  0  0  0  0  0  0  0  0  0  0
   -1.3441   15.7523   -3.7649 H   0  0  0  0  0  0  0  0  0  0  0  0
   -2.4061   14.7813   -2.9759 H   0  0  0  0  0  0  0  0  0  0  0  0
   -3.6221   16.2473   -4.3839 H   0  0  0  0  0  0  0  0  0  0  0  0
   -3.7761   14.7103   -4.9379 H   0  0  0  0  0  0  0  0  0  0  0  0
   -2.3091   16.8623   -6.1259 H   0  0  0  0  0  0  0  0  0  0  0  0
   -3.3021   15.7613   -6.8549 H   0  0  0  0  0  0  0  0  0  0  0  0
   -1.3781   14.9333   -7.5979 H   0  0  0  0  0  0  0  0  0  0  0  0
   -0.5311   15.5373   -6.3229 H   0  0  0  0  0  0  0  0  0  0  0  0
   -4.3451   14.0473   -7.2329 H   0  0  0  0  0  0  0  0  0  0  0  0
   -5.1201   11.6813  -10.5509 H   0  0  0  0  0  0  0  0  0  0  0  0
   -6.0891   12.5143   -9.5229 H   0  0  0  0  0  0  0  0  0  0  0  0
   -6.7611   10.1253  -10.9759 H   0  0  0  0  0  0  0  0  0  0  0  0
   -7.5451   11.5963  -10.9829 H   0  0  0  0  0  0  0  0  0  0  0  0
   -8.0391   10.2763   -7.3989 H   0  0  0  0  0  0  0  0  0  0  0  0
   -7.7121    8.8593   -8.2059 H   0  0  0  0  0  0  0  0  0  0  0  0
   -9.9621    9.5903   -8.0969 H   0  0  0  0  0  0  0  0  0  0  0  0
  -11.8481   10.5443   -9.9499 H   0  0  0  0  0  0  0  0  0  0  0  0
  -12.1121    8.1923   -8.2729 H   0  0  0  0  0  0  0  0  0  0  0  0
  -11.8721    8.1623   -9.8909 H   0  0  0  0  0  0  0  0  0  0  0  0
  -14.1961    7.8213   -9.3829 H   0  0  0  0  0  0  0  0  0  0  0  0
  -13.9861    9.1963  -10.2449 H   0  0  0  0  0  0  0  0  0  0  0  0
  -14.3391    9.0993   -7.3689 H   0  0  0  0  0  0  0  0  0  0  0  0
  -15.4631    9.6323   -8.4319 H   0  0  0  0  0  0  0  0  0  0  0  0
  -14.3051   11.4883   -7.4359 H   0  0  0  0  0  0  0  0  0  0  0  0
  -14.0521   11.4443   -9.0519 H   0  0  0  0  0  0  0  0  0  0  0  0
  -11.9741   11.8213   -7.9359 H   0  0  0  0  0  0  0  0  0  0  0  0
  -12.1871   10.4453   -7.0759 H   0  0  0  0  0  0  0  0  0  0  0  0
   -7.2771    9.3683   -1.4729 H   0  0  0  0  0  0  0  0  0  0  0  0
   -8.8981    9.6393   -1.5289 H   0  0  0  0  0  0  0  0  0  0  0  0
   -8.2971   10.6173   -3.8209 H   0  0  0  0  0  0  0  0  0  0  0  0
   -6.8561   10.8693   -3.0489 H   0  0  0  0  0  0  0  0  0  0  0  0
   -8.1371   12.6943   -2.8559 H   0  0  0  0  0  0  0  0  0  0  0  0
   -6.7161   12.2533   -1.1109 H   0  0  0  0  0  0  0  0  0  0  0  0
   -8.0261   11.6523   -0.3149 H   0  0  0  0  0  0  0  0  0  0  0  0
   -7.3591   14.3753   -0.7799 H   0  0  0  0  0  0  0  0  0  0  0  0
   -8.1151   13.6953    0.5201 H   0  0  0  0  0  0  0  0  0  0  0  0
   -9.3081   14.6293   -1.9029 H   0  0  0  0  0  0  0  0  0  0  0  0
  -11.3101   13.3653   -1.4059 H   0  0  0  0  0  0  0  0  0  0  0  0
  -10.4691   12.5533   -0.2609 H   0  0  0  0  0  0  0  0  0  0  0  0
  -10.2151   11.1193   -1.9829 H   0  0  0  0  0  0  0  0  0  0  0  0
  -10.2421   12.3443   -3.0949 H   0  0  0  0  0  0  0  0  0  0  0  0
  1  2  2  0
  1  6  1  0
  2  3  1  0
  3  4  2  0
  3 45  1  0
  4  5  1  0
  4 35  1  0
  5  6  2  0
  6  7  1  0
  7  8  1  0
  7 11  2  0
  8  9  2  0
  8 25  1  0
  9 10  1  0
  9 22  1  0
 10 11  1  0
 10 12  1  0
 12 13  1  0
 13 14  1  0
 13 21  1  0
 14 15  1  0
 15 16  1  0
 15 20  1  0
 16 17  1  0
 17 18  1  0
 18 19  1  0
 19 20  1  0
 22 23  1  0
 23 24  1  0
 24 25  1  0
 24 26  1  0
 26 27  2  0
 26 28  1  0
 28 29  1  0
 29 30  1  0
 29 34  1  0
 30 31  1  0
 31 32  1  0
 32 33  1  0
 33 34  1  0
 35 36  1  0
 36 37  1  0
 37 38  1  0
 38 39  1  0
 38 43  1  0
 39 40  1  0
 40 41  1  0
 41 42  1  0
 41 44  1  0
 42 43  1  0
 45 46  1  0
 45 47  1  0
 45 48  1  0
  1 50  1  0
  2 51  1  0
  5 52  1  0
 12 53  1  0
 12 54  1  0
 13 49  1  0
 14 55  1  0
 14 56  1  0
 15 57  1  0
 16 58  1  0
 16 59  1  0
 17 60  1  0
 17 61  1  0
 18 62  1  0
 18 63  1  0
 19 64  1  0
 19 65  1  0
 20 66  1  0
 20 67  1  0
 21 68  1  0
 22 69  1  0
 22 70  1  0
 23 71  1  0
 23 72  1  0
 25 73  1  0
 25 74  1  0
 28 75  1  0
 29 76  1  0
 30 77  1  0
 30 78  1  0
 31 79  1  0
 31 80  1  0
 32 81  1  0
 32 82  1  0
 33 83  1  0
 33 84  1  0
 34 85  1  0
 34 86  1  0
 36 87  1  0
 36 88  1  0
 37 89  1  0
 37 90  1  0
 38 91  1  0
 39 92  1  0
 39 93  1  0
 40 94  1  0
 40 95  1  0
 41 96  1  0
 42 97  1  0
 42 98  1  0
 43 99  1  0
 43100  1  0
M  CHG  2  15   1  38   1
M  END
>  <LF dG>
-12.446

>  <LF VSscore>
-13.96

>  <LF Rank Score>
-10.185

>  <LF LE>
-0.259

>  <Favorite_cresset>
false

>  <Protein_cresset>
haan-CatS_chainA-aligned_P

>  <MW_cresset>
696.9

>  <#Atoms_cresset>
48

>  <SlogP_cresset>
6.7

>  <TPSA_cresset>
79.3

>  <Flexibility_cresset>
13.9

>  <#RB_cresset>
14

>  <Rof5_cresset>
2

>  <Filename_cresset>
CatS_131.pdb

>  <Preferred Pose_cresset>
true

>  <_cresset_fieldpoints>
    -5      -3.239118       8.549303      -8.838896     -1.7255
    -5      -4.555119      14.556303      -9.614896     -2.5845
    -5     -10.981118      11.338304     -12.038896     -9.4750
    -6      -1.951118       5.738303      -5.240896      4.9320
    -6      -3.100118      11.557303     -11.881895      5.9075
    -6      -5.635118      13.945303      -5.938896     10.2340
    -6       0.310882      12.381304      -7.835896     10.6870
    -6      -9.807118      10.288303       0.578104      5.6635
    -6      -9.583118       9.492304      -6.016896     11.8685
    -6      -6.983118      14.078303      -3.760896     11.1875
    -7      -9.563118       7.852304      -6.464896     -3.2920
    -7      -5.997118       7.638304     -10.113895     -2.2400
    -7       0.433882      12.750303      -8.432896     -2.1375
    -7       1.741881      14.441303      -5.608896     -1.6020
    -7       1.176882      16.016304      -4.485896     -1.7345
    -7      -0.072118      17.692303      -4.849896     -1.7800
    -7      -3.707118      15.604303      -9.399896     -2.1480
    -7      -4.241118      14.387303     -10.371896     -2.1950
    -7      -9.915118      10.075303      -5.646896     -4.0395
    -7      -8.641118      12.823303      -8.092896     -2.8365
    -7     -10.592118       9.100304     -12.034896     -2.0465
    -7      -7.748118       6.424304      -7.108896     -2.8455
    -7      -1.825118       9.292303      -6.527896     -2.9040
    -7     -13.611118      11.369304     -11.599895     -1.9950
    -7      -9.231118       7.592303      -9.878896     -2.6465
    -7     -15.700118      11.011303     -11.043896     -1.5895
    -7      -9.372118      12.445303      -7.557896     -2.8945
    -7      -5.582118      12.181303      -5.131896     -4.0325
    -7      -9.881119      10.234303       0.716104     -2.4715
    -7      -7.109118      16.572304       0.799104     -1.1540
    -7      -9.076118      14.311303      -4.469896     -2.0200
    -7      -9.404119      11.758304       1.895104     -2.0095
    -7      -4.674118       9.595304      -2.322896     -3.6195
    -7      -6.572118       3.396303       0.022104     -1.1620
    -7      -8.206119       7.389303       0.433104     -1.8740
    -8      -7.102118       7.937304      -3.826896      5.7835
    -8      -7.805118       9.194304      -3.049896      5.8980
    -8      -6.228118      10.744304      -9.174896      5.2125
    -8      -6.298118       9.895304      -7.780896      4.9330
    -8      -2.203118      15.326303      -5.131896      5.9695
    -8      -2.261118      12.273303      -7.667896      4.5945
    -8     -13.122118       9.820303      -8.658895      7.2005
    -8      -5.666118       7.672303      -4.823896      7.2230
    -8      -9.169118      13.329304      -0.854896      6.0920
    -8      -6.025118       5.883304      -2.826896      6.2585

$$$$
