CatS_9_D
  xed2sdf_05210316543D
 
102107  0  0  1  0  0  0  0  0999 V2000
  -11.1657   14.6867   -1.2638 C   0  0  0  0  0  0  0  0  0  0  0  0
  -10.1617   13.6337   -0.7538 C   0  0  0  0  0  0  0  0  0  0  0  0
   -8.7487   14.2417   -0.5858 C   0  0  0  0  0  0  0  0  0  0  0  0
   -7.6737   13.1927   -0.2358 C   0  0  0  0  0  0  0  0  0  0  0  0
   -7.6957   12.0397   -1.2578 C   0  0  0  0  0  0  0  0  0  0  0  0
   -9.0607   11.4027   -1.3198 N   0  3  0  0  0  0  0  0  0  0  0  0
  -10.1347   12.3997   -1.6858 C   0  0  0  0  0  0  0  0  0  0  0  0
   -9.0697   10.1687   -2.1888 C   0  0  0  0  0  0  0  0  0  0  0  0
   -7.6797    9.5517   -2.4658 C   0  0  0  0  0  0  0  0  0  0  0  0
   -7.7097    7.7577   -2.7568 S   0  0  0  0  0  0  0  0  0  0  0  0
   -6.4917    7.4397   -4.0398 C   0  0  0  0  0  0  0  0  0  0  0  0
   -6.3087    8.4317   -4.9758 C   0  0  0  0  0  0  0  0  0  0  0  0
   -5.3577    8.2967   -5.9708 C   0  0  0  0  0  0  0  0  0  0  0  0
   -4.5937    7.1457   -5.9988 C   0  0  0  0  0  0  0  0  0  0  0  0
   -4.7977    6.1477   -5.0768 C   0  0  0  0  0  0  0  0  0  0  0  0
   -5.7527    6.2647   -4.0878 C   0  0  0  0  0  0  0  0  0  0  0  0
   -5.8657    5.0687   -3.1418 C   0  0  0  0  0  0  0  0  0  0  0  0
   -6.9337    4.2567   -3.5058 F   0  0  0  0  0  0  0  0  0  0  0  0
   -6.0797    5.4557   -1.8208 F   0  0  0  0  0  0  0  0  0  0  0  0
   -4.7267    4.2727   -3.1238 F   0  0  0  0  0  0  0  0  0  0  0  0
   -5.1307    9.3137   -6.9798 C   0  0  0  0  0  0  0  0  0  0  0  0
   -6.0667    9.9567   -7.8238 C   0  0  0  0  0  0  0  0  0  0  0  0
   -5.3027   10.7417   -8.5868 C   0  0  0  0  0  0  0  0  0  0  0  0
   -3.9867   10.6737   -8.2638 N   0  0  0  0  0  0  0  0  0  0  0  0
   -3.9267    9.7557   -7.2768 N   0  0  0  0  0  0  0  0  0  0  0  0
   -2.8247   11.3797   -8.8208 C   0  0  0  0  0  0  0  0  0  0  0  0
   -2.2657   12.4917   -7.9118 C   0  0  0  0  0  0  0  0  0  0  0  0
   -3.3847   13.1557   -7.0788 C   0  0  0  0  0  0  0  0  0  0  0  0
   -2.9067   14.1917   -6.0878 N   0  3  0  0  0  0  0  0  0  0  0  0
   -2.8517   15.5937   -6.6478 C   0  0  0  0  0  0  0  0  0  0  0  0
   -2.5527   16.6097   -5.5268 C   0  0  0  0  0  0  0  0  0  0  0  0
   -1.2227   16.2467   -4.8368 C   0  0  0  0  0  0  0  0  0  0  0  0
   -1.3147   14.8217   -4.2478 C   0  0  0  0  0  0  0  0  0  0  0  0
   -1.6407   13.8037   -5.3618 C   0  0  0  0  0  0  0  0  0  0  0  0
   -0.8927   17.3057   -3.8698 N   0  0  0  0  0  0  0  0  0  0  0  0
   -1.8677   17.9557   -2.9848 C   0  0  0  0  0  0  0  0  0  0  0  0
   -0.9167   18.6447   -1.9898 C   0  0  0  0  0  0  0  0  0  0  0  0
    0.4093   18.8497   -2.7398 C   0  0  0  0  0  0  0  0  0  0  0  0
    0.3613   17.7677   -3.7848 C   0  0  0  0  0  0  0  0  0  0  0  0
    1.3213   17.3807   -4.4358 O   0  0  0  0  0  0  0  0  0  0  0  0
   -5.9017   11.5727   -9.7038 C   0  0  0  0  0  0  0  0  0  0  0  0
   -7.2567   10.9647  -10.1308 C   0  0  0  0  0  0  0  0  0  0  0  0
   -8.1717   10.7917   -8.9818 N   0  0  0  0  0  0  0  0  0  0  0  0
   -7.5767    9.8387   -8.0128 C   0  0  0  0  0  0  0  0  0  0  0  0
   -9.7477   10.5637   -9.3248 S   0  0  0  0  0  0  0  0  0  0  0  0
  -10.1777   11.6247  -10.1778 O   0  0  0  0  0  0  0  0  0  0  0  0
  -10.4527   10.3747   -8.0988 O   0  0  0  0  0  0  0  0  0  0  0  0
   -9.8407    9.0167  -10.2588 C   0  0  0  0  0  0  0  0  0  0  0  0
  -10.6587   13.1837    0.6302 C   0  0  0  0  0  0  0  0  0  0  0  0
  -11.8817   14.8137   -0.5768 H   0  0  0  0  0  0  0  0  0  0  0  0
  -10.6947   15.5547   -1.4228 H   0  0  0  0  0  0  0  0  0  0  0  0
  -11.5737   14.3757   -2.1218 H   0  0  0  0  0  0  0  0  0  0  0  0
   -8.7807   14.9247    0.1442 H   0  0  0  0  0  0  0  0  0  0  0  0
   -8.4937   14.6457   -1.4638 H   0  0  0  0  0  0  0  0  0  0  0  0
   -7.8527   12.8287    0.6792 H   0  0  0  0  0  0  0  0  0  0  0  0
   -6.7747   13.6287   -0.2588 H   0  0  0  0  0  0  0  0  0  0  0  0
   -7.0217   11.3507   -0.9908 H   0  0  0  0  0  0  0  0  0  0  0  0
   -7.4747   12.4087   -2.1598 H   0  0  0  0  0  0  0  0  0  0  0  0
   -9.2437   11.1137   -0.4778 H   0  0  0  0  0  0  0  0  0  0  0  0
   -9.9777   12.7097   -2.6228 H   0  0  0  0  0  0  0  0  0  0  0  0
  -11.0147   11.9347   -1.5898 H   0  0  0  0  0  0  0  0  0  0  0  0
   -9.4857   10.4087   -3.0658 H   0  0  0  0  0  0  0  0  0  0  0  0
   -9.5847    9.4767   -1.6828 H   0  0  0  0  0  0  0  0  0  0  0  0
   -7.0907    9.7347   -1.6778 H   0  0  0  0  0  0  0  0  0  0  0  0
   -7.3387    9.9737   -3.3058 H   0  0  0  0  0  0  0  0  0  0  0  0
   -6.8687    9.2587   -4.9358 H   0  0  0  0  0  0  0  0  0  0  0  0
   -3.8857    7.0377   -6.6968 H   0  0  0  0  0  0  0  0  0  0  0  0
   -4.2427    5.3177   -5.1238 H   0  0  0  0  0  0  0  0  0  0  0  0
   -3.0927   11.7897   -9.6928 H   0  0  0  0  0  0  0  0  0  0  0  0
   -2.0967   10.7007   -8.9228 H   0  0  0  0  0  0  0  0  0  0  0  0
   -1.8227   13.1857   -8.4788 H   0  0  0  0  0  0  0  0  0  0  0  0
   -1.6077   12.0797   -7.2808 H   0  0  0  0  0  0  0  0  0  0  0  0
   -3.8667   12.4387   -6.5748 H   0  0  0  0  0  0  0  0  0  0  0  0
   -3.9707   13.6397   -7.7298 H   0  0  0  0  0  0  0  0  0  0  0  0
   -3.5567   14.2217   -5.4468 H   0  0  0  0  0  0  0  0  0  0  0  0
   -3.7307   15.8157   -7.0708 H   0  0  0  0  0  0  0  0  0  0  0  0
   -2.1237   15.6417   -7.3318 H   0  0  0  0  0  0  0  0  0  0  0  0
   -3.2927   16.5937   -4.8548 H   0  0  0  0  0  0  0  0  0  0  0  0
   -2.4797   17.5257   -5.9208 H   0  0  0  0  0  0  0  0  0  0  0  0
   -0.4597   16.2117   -5.4828 H   0  0  0  0  0  0  0  0  0  0  0  0
   -2.0327   14.7957   -3.5518 H   0  0  0  0  0  0  0  0  0  0  0  0
   -0.4347   14.5817   -3.8358 H   0  0  0  0  0  0  0  0  0  0  0  0
   -0.8827   13.7737   -6.0138 H   0  0  0  0  0  0  0  0  0  0  0  0
   -1.7727   12.9047   -4.9438 H   0  0  0  0  0  0  0  0  0  0  0  0
   -2.4617   17.2907   -2.5338 H   0  0  0  0  0  0  0  0  0  0  0  0
   -2.5067   18.5717   -3.4468 H   0  0  0  0  0  0  0  0  0  0  0  0
   -0.7777   18.0677   -1.1848 H   0  0  0  0  0  0  0  0  0  0  0  0
   -1.2917   19.5137   -1.6668 H   0  0  0  0  0  0  0  0  0  0  0  0
    1.1933   18.7337   -2.1308 H   0  0  0  0  0  0  0  0  0  0  0  0
    0.5133   19.7677   -3.1218 H   0  0  0  0  0  0  0  0  0  0  0  0
   -5.2767   11.5837  -10.4848 H   0  0  0  0  0  0  0  0  0  0  0  0
   -6.0457   12.5087   -9.3818 H   0  0  0  0  0  0  0  0  0  0  0  0
   -7.0927   10.0727  -10.5538 H   0  0  0  0  0  0  0  0  0  0  0  0
   -7.6887   11.5937  -10.7768 H   0  0  0  0  0  0  0  0  0  0  0  0
   -8.0117    9.9867   -7.1248 H   0  0  0  0  0  0  0  0  0  0  0  0
   -7.7367    8.9267   -8.3898 H   0  0  0  0  0  0  0  0  0  0  0  0
  -10.3627    8.3477   -9.7298 H   0  0  0  0  0  0  0  0  0  0  0  0
  -10.2917    9.1777  -11.1358 H   0  0  0  0  0  0  0  0  0  0  0  0
   -8.9177    8.6687  -10.4258 H   0  0  0  0  0  0  0  0  0  0  0  0
  -10.8477   12.2027    0.6052 H   0  0  0  0  0  0  0  0  0  0  0  0
   -9.9587   13.3747    1.3192 H   0  0  0  0  0  0  0  0  0  0  0  0
  -11.4927   13.6827    0.8672 H   0  0  0  0  0  0  0  0  0  0  0  0
  1  2  1  0
  2  3  1  0
  2  7  1  0
  2 49  1  0
  3  4  1  0
  4  5  1  0
  5  6  1  0
  6  7  1  0
  6  8  1  0
  8  9  1  0
  9 10  1  0
 10 11  1  0
 11 12  2  0
 11 16  1  0
 12 13  1  0
 13 14  2  0
 13 21  1  0
 14 15  1  0
 15 16  2  0
 16 17  1  0
 17 18  1  0
 17 19  1  0
 17 20  1  0
 21 22  1  0
 21 25  2  0
 22 23  2  0
 22 44  1  0
 23 24  1  0
 23 41  1  0
 24 25  1  0
 24 26  1  0
 26 27  1  0
 27 28  1  0
 28 29  1  0
 29 30  1  0
 29 34  1  0
 30 31  1  0
 31 32  1  0
 32 33  1  0
 32 35  1  0
 33 34  1  0
 35 36  1  0
 35 39  1  0
 36 37  1  0
 37 38  1  0
 38 39  1  0
 39 40  2  0
 41 42  1  0
 42 43  1  0
 43 44  1  0
 43 45  1  0
 45 46  2  0
 45 47  2  0
 45 48  1  0
  1 50  1  0
  1 51  1  0
  1 52  1  0
  3 53  1  0
  3 54  1  0
  4 55  1  0
  4 56  1  0
  5 57  1  0
  5 58  1  0
  6 59  1  0
  7 60  1  0
  7 61  1  0
  8 62  1  0
  8 63  1  0
  9 64  1  0
  9 65  1  0
 12 66  1  0
 14 67  1  0
 15 68  1  0
 26 69  1  0
 26 70  1  0
 27 71  1  0
 27 72  1  0
 28 73  1  0
 28 74  1  0
 29 75  1  0
 30 76  1  0
 30 77  1  0
 31 78  1  0
 31 79  1  0
 32 80  1  0
 33 81  1  0
 33 82  1  0
 34 83  1  0
 34 84  1  0
 36 85  1  0
 36 86  1  0
 37 87  1  0
 37 88  1  0
 38 89  1  0
 38 90  1  0
 41 91  1  0
 41 92  1  0
 42 93  1  0
 42 94  1  0
 44 95  1  0
 44 96  1  0
 48 97  1  0
 48 98  1  0
 48 99  1  0
 49100  1  0
 49101  1  0
 49102  1  0
M  CHG  2   6   1  29   1
M  END
>  <LF dG>
-12.109

>  <LF VSscore>
-13.546

>  <LF Rank Score>
-9.543

>  <LF LE>
-0.247

>  <Favorite_cresset>
false

>  <Protein_cresset>
haan-CatS_chainA-aligned_P

>  <MW_cresset>
727

>  <#Atoms_cresset>
49

>  <SlogP_cresset>
5.6

>  <TPSA_cresset>
84.4

>  <Flexibility_cresset>
11.9

>  <#RB_cresset>
12

>  <Rof5_cresset>
2

>  <Filename_cresset>
CatS_9.pdb

>  <Preferred Pose_cresset>
true

>  <_cresset_fieldpoints>
    -5      -2.492723       9.740655      -6.004774     -4.2930
    -5       1.978277      16.202656      -5.590774     -8.6510
    -5       3.014277      17.878654      -4.433774     -9.1380
    -5     -11.821723      12.179655      -8.695774     -4.6380
    -6      -9.087723      10.458655       1.425226      7.9805
    -6      -8.101723      13.836655       2.876226      4.6845
    -6      -7.268723      11.550655      -4.917774      6.6260
    -6      -4.023723      13.815655     -10.328773      8.6885
    -6      -2.732723       4.659655      -6.739774      4.1800
    -6      -5.584723      10.576655     -12.597775      7.0325
    -6      -7.709723       8.951655     -12.470774      7.1070
    -6      -4.633723      14.827656      -3.769774      9.9045
    -6      -6.367723      11.890656      -4.362774      6.6305
    -7     -13.477723      12.407656      -0.829774     -1.9025
    -7      -7.253723      11.711656      -5.088774     -3.7955
    -7      -8.283723      14.007655      -3.988774     -2.3695
    -7     -10.533724      16.324656       1.502226     -1.9180
    -7      -8.726723      10.694655       1.826226     -2.3075
    -7      -8.208723      14.635655       2.721226     -1.6790
    -7      -7.854723       9.539656       0.873226     -2.5975
    -7      -2.585723      10.400655      -5.352774     -3.5060
    -7     -11.498723       9.824656       0.019226     -2.1675
    -7     -12.442723      12.576655      -3.861774     -1.4470
    -7      -6.259723       2.249655      -0.918774     -1.1510
    -7      -8.093723       6.651655      -7.064774     -3.1400
    -7      -9.322723       4.862655      -1.329774     -1.4515
    -7      -5.644723       3.311655      -6.370774     -1.7320
    -7      -4.028723      14.269655     -10.176774     -2.5320
    -7       0.647277      11.162655      -8.294774     -1.1875
    -7       1.869277      15.124655      -5.094774     -2.0400
    -7       0.251277      14.993655      -7.874774     -2.4210
    -7      -4.860723      18.675655      -4.544774     -1.4515
    -7      -6.253723      11.771655      -4.868774     -3.7975
    -7      -0.998723      19.636654      -5.661774     -2.4800
    -7      -4.552723      15.054655      -3.221774     -2.5200
    -7       0.737277      20.743656      -0.069774     -1.0720
    -7       0.878277      20.004654       0.360226     -1.0735
    -7       0.339277      15.655655      -1.587774     -2.5040
    -7      -7.815723      12.937655      -7.333774     -2.7795
    -7      -2.959723       8.097655      -8.982774     -2.5865
    -7      -9.613723       9.214655      -5.440774     -3.2885
    -7      -6.338723       7.589655     -10.111774     -2.7000
    -7      -9.582724      11.408655     -12.539774     -1.8895
    -8      -8.127724       9.011656      -2.557774      5.5650
    -8      -5.831723       5.226655      -3.286774      6.2480
    -8      -5.554723       7.285655      -5.021774      7.2190
    -8      -7.076723       8.432655      -3.570774      6.0020
    -8     -10.186724      13.727655      -0.629774      6.3940
    -8      -6.279723       9.851655      -7.843774      4.9665
    -8      -6.335723      10.596655      -9.040774      5.4460
    -8      -2.840723      12.505655      -8.007774      5.0195
    -8      -1.855723      15.485655      -5.273774      5.7650
    -8      -0.548723      18.588655      -2.580774      5.1815
    -8      -9.635723       9.434655      -9.978774      4.1825
    -8      -8.266724      10.168655      -9.340775      3.3040

$$$$
