CatS_157_D
  xed2sdf_05210316543D
 
 92 96  0  0  1  0  0  0  0  0999 V2000
   -1.3386   17.1479   -3.1265 C   0  0  0  0  0  0  0  0  0  0  0  0
   -2.0286   16.2259   -4.1465 C   0  0  0  0  0  0  0  0  0  0  0  0
   -1.2606   16.3319   -5.4845 C   0  0  0  0  0  0  0  0  0  0  0  0
   -1.7606   15.3369   -6.5605 C   0  0  0  0  0  0  0  0  0  0  0  0
   -2.1666   13.9989   -5.9825 N   0  3  0  0  0  0  0  0  0  0  0  0
   -1.5786   13.7229   -4.6225 C   0  0  0  0  0  0  0  0  0  0  0  0
   -2.0496   14.7749   -3.5935 C   0  0  0  0  0  0  0  0  0  0  0  0
   -2.0566   12.8509   -6.9585 C   0  0  0  0  0  0  0  0  0  0  0  0
   -3.0046   12.9289   -8.1745 C   0  0  0  0  0  0  0  0  0  0  0  0
   -3.0826   11.5619   -8.8865 C   0  0  0  0  0  0  0  0  0  0  0  0
   -4.1826   10.7569   -8.3375 N   0  0  0  0  0  0  0  0  0  0  0  0
   -5.4886   10.6659   -8.6985 C   0  0  0  0  0  0  0  0  0  0  0  0
   -6.2016    9.8889   -7.8805 C   0  0  0  0  0  0  0  0  0  0  0  0
   -5.2436    9.4329   -6.9455 C   0  0  0  0  0  0  0  0  0  0  0  0
   -4.0766    9.9569   -7.2545 N   0  0  0  0  0  0  0  0  0  0  0  0
   -5.4116    8.5349   -5.8175 C   0  0  0  0  0  0  0  0  0  0  0  0
   -4.4566    7.5649   -5.5725 C   0  0  0  0  0  0  0  0  0  0  0  0
   -4.5906    6.7029   -4.5105 C   0  0  0  0  0  0  0  0  0  0  0  0
   -5.6626    6.7879   -3.6455 C   0  0  0  0  0  0  0  0  0  0  0  0
   -6.6066    7.7779   -3.8815 C   0  0  0  0  0  0  0  0  0  0  0  0
   -6.4896    8.6259   -4.9575 C   0  0  0  0  0  0  0  0  0  0  0  0
   -8.0066    8.0429   -2.7855 S   0  0  0  0  0  0  0  0  0  0  0  0
   -7.6896    9.7029   -2.1315 C   0  0  0  0  0  0  0  0  0  0  0  0
   -8.9626   10.5679   -2.1015 C   0  0  0  0  0  0  0  0  0  0  0  0
   -8.6706   12.0409   -2.2365 N   0  3  0  0  0  0  0  0  0  0  0  0
   -8.0486   12.6569   -1.0045 C   0  0  0  0  0  0  0  0  0  0  0  0
   -9.0836   12.7789    0.1325 C   0  0  0  0  0  0  0  0  0  0  0  0
  -10.2836   13.6199   -0.3395 C   0  0  0  0  0  0  0  0  0  0  0  0
  -10.9266   12.9719   -1.5815 C   0  0  0  0  0  0  0  0  0  0  0  0
   -9.8846   12.8019   -2.7075 C   0  0  0  0  0  0  0  0  0  0  0  0
  -11.4496   11.7309   -1.2375 F   0  0  0  0  0  0  0  0  0  0  0  0
  -11.9886   13.7549   -2.0235 F   0  0  0  0  0  0  0  0  0  0  0  0
   -5.7156    5.7869   -2.4935 C   0  0  0  0  0  0  0  0  0  0  0  0
   -4.9776    4.6289   -2.7275 F   0  0  0  0  0  0  0  0  0  0  0  0
   -7.0216    5.3819   -2.2415 F   0  0  0  0  0  0  0  0  0  0  0  0
   -5.2206    6.3509   -1.3235 F   0  0  0  0  0  0  0  0  0  0  0  0
   -7.6876    9.6189   -8.0885 C   0  0  0  0  0  0  0  0  0  0  0  0
   -8.3416   10.5249   -9.0625 N   0  0  0  0  0  0  0  0  0  0  0  0
   -7.4706   10.6699  -10.2475 C   0  0  0  0  0  0  0  0  0  0  0  0
   -6.1266   11.3469   -9.8965 C   0  0  0  0  0  0  0  0  0  0  0  0
   -9.9136   10.2459   -9.3775 S   0  0  0  0  0  0  0  0  0  0  0  0
  -10.5736   10.0379   -8.1295 O   0  0  0  0  0  0  0  0  0  0  0  0
  -10.3946   11.3099  -10.1985 O   0  0  0  0  0  0  0  0  0  0  0  0
  -10.0096    8.6979  -10.3175 C   0  0  0  0  0  0  0  0  0  0  0  0
   -4.3196   13.3489   -7.7825 O   0  0  0  0  0  0  0  0  0  0  0  0
   -3.4636   16.7579   -4.3255 C   0  0  0  0  0  0  0  0  0  0  0  0
   -2.6326   13.6089   -8.8075 H   0  0  0  0  0  0  0  0  0  0  0  0
   -1.9846   17.8539   -2.8375 H   0  0  0  0  0  0  0  0  0  0  0  0
   -1.0456   16.6139   -2.3335 H   0  0  0  0  0  0  0  0  0  0  0  0
   -0.5376   17.5749   -3.5465 H   0  0  0  0  0  0  0  0  0  0  0  0
   -0.2916   16.1539   -5.3105 H   0  0  0  0  0  0  0  0  0  0  0  0
   -1.4146   17.2529   -5.8415 H   0  0  0  0  0  0  0  0  0  0  0  0
   -1.0296   15.1909   -7.2265 H   0  0  0  0  0  0  0  0  0  0  0  0
   -2.5726   15.7379   -6.9845 H   0  0  0  0  0  0  0  0  0  0  0  0
   -3.0606   14.0719   -5.8235 H   0  0  0  0  0  0  0  0  0  0  0  0
   -0.5806   13.7459   -4.6855 H   0  0  0  0  0  0  0  0  0  0  0  0
   -1.8856   12.8209   -4.3195 H   0  0  0  0  0  0  0  0  0  0  0  0
   -2.9846   14.5539   -3.3155 H   0  0  0  0  0  0  0  0  0  0  0  0
   -1.4126   14.7419   -2.8245 H   0  0  0  0  0  0  0  0  0  0  0  0
   -2.2516   12.0029   -6.4645 H   0  0  0  0  0  0  0  0  0  0  0  0
   -1.1286   12.8889   -7.3285 H   0  0  0  0  0  0  0  0  0  0  0  0
   -2.2196   11.0729   -8.7605 H   0  0  0  0  0  0  0  0  0  0  0  0
   -3.2506   11.7139   -9.8615 H   0  0  0  0  0  0  0  0  0  0  0  0
   -3.6616    7.4909   -6.1745 H   0  0  0  0  0  0  0  0  0  0  0  0
   -3.8956    5.9989   -4.3615 H   0  0  0  0  0  0  0  0  0  0  0  0
   -7.1936    9.3169   -5.1205 H   0  0  0  0  0  0  0  0  0  0  0  0
   -7.0056   10.1519   -2.7065 H   0  0  0  0  0  0  0  0  0  0  0  0
   -7.3626    9.6059   -1.1915 H   0  0  0  0  0  0  0  0  0  0  0  0
   -9.4366   10.4109   -1.2345 H   0  0  0  0  0  0  0  0  0  0  0  0
   -9.5266   10.3009   -2.8825 H   0  0  0  0  0  0  0  0  0  0  0  0
   -8.0506   12.1199   -2.9005 H   0  0  0  0  0  0  0  0  0  0  0  0
   -7.6986   13.5659   -1.2315 H   0  0  0  0  0  0  0  0  0  0  0  0
   -7.3026   12.0669   -0.6945 H   0  0  0  0  0  0  0  0  0  0  0  0
   -8.6586   13.2179    0.9235 H   0  0  0  0  0  0  0  0  0  0  0  0
   -9.4026   11.8659    0.3865 H   0  0  0  0  0  0  0  0  0  0  0  0
   -9.9746   14.5429   -0.5675 H   0  0  0  0  0  0  0  0  0  0  0  0
  -10.9616   13.6629    0.3945 H   0  0  0  0  0  0  0  0  0  0  0  0
  -10.3046   12.3049   -3.4675 H   0  0  0  0  0  0  0  0  0  0  0  0
   -9.5896   13.7119   -2.9965 H   0  0  0  0  0  0  0  0  0  0  0  0
   -8.1506    9.7139   -7.2075 H   0  0  0  0  0  0  0  0  0  0  0  0
   -7.7606    8.6949   -8.4655 H   0  0  0  0  0  0  0  0  0  0  0  0
   -7.9446   11.2219  -10.9335 H   0  0  0  0  0  0  0  0  0  0  0  0
   -7.2726    9.7549  -10.6005 H   0  0  0  0  0  0  0  0  0  0  0  0
   -5.5086   11.2849  -10.6805 H   0  0  0  0  0  0  0  0  0  0  0  0
   -6.2966   12.3059   -9.6715 H   0  0  0  0  0  0  0  0  0  0  0  0
  -10.3806    8.8909  -11.2255 H   0  0  0  0  0  0  0  0  0  0  0  0
   -9.0976    8.2979  -10.4035 H   0  0  0  0  0  0  0  0  0  0  0  0
  -10.6056    8.0509   -9.8405 H   0  0  0  0  0  0  0  0  0  0  0  0
   -4.5666   12.9799   -6.8795 H   0  0  0  0  0  0  0  0  0  0  0  0
   -4.1106   16.0499   -4.0445 H   0  0  0  0  0  0  0  0  0  0  0  0
   -3.5936   17.5749   -3.7635 H   0  0  0  0  0  0  0  0  0  0  0  0
   -3.6176   16.9959   -5.2845 H   0  0  0  0  0  0  0  0  0  0  0  0
  1  2  1  0
  2  3  1  0
  2  7  1  0
  2 46  1  0
  3  4  1  0
  4  5  1  0
  5  6  1  0
  5  8  1  0
  6  7  1  0
  8  9  1  0
  9 10  1  0
  9 45  1  0
 10 11  1  0
 11 12  1  0
 11 15  1  0
 12 13  2  0
 12 40  1  0
 13 14  1  0
 13 37  1  0
 14 15  2  0
 14 16  1  0
 16 17  2  0
 16 21  1  0
 17 18  1  0
 18 19  2  0
 19 20  1  0
 19 33  1  0
 20 21  2  0
 20 22  1  0
 22 23  1  0
 23 24  1  0
 24 25  1  0
 25 26  1  0
 25 30  1  0
 26 27  1  0
 27 28  1  0
 28 29  1  0
 29 30  1  0
 29 31  1  0
 29 32  1  0
 33 34  1  0
 33 35  1  0
 33 36  1  0
 37 38  1  0
 38 39  1  0
 38 41  1  0
 39 40  1  0
 41 42  2  0
 41 43  2  0
 41 44  1  0
  1 48  1  0
  1 49  1  0
  1 50  1  0
  3 51  1  0
  3 52  1  0
  4 53  1  0
  4 54  1  0
  5 55  1  0
  6 56  1  0
  6 57  1  0
  7 58  1  0
  7 59  1  0
  8 60  1  0
  8 61  1  0
  9 47  1  0
 10 62  1  0
 10 63  1  0
 17 64  1  0
 18 65  1  0
 21 66  1  0
 23 67  1  0
 23 68  1  0
 24 69  1  0
 24 70  1  0
 25 71  1  0
 26 72  1  0
 26 73  1  0
 27 74  1  0
 27 75  1  0
 28 76  1  0
 28 77  1  0
 30 78  1  0
 30 79  1  0
 37 80  1  0
 37 81  1  0
 39 82  1  0
 39 83  1  0
 40 84  1  0
 40 85  1  0
 44 86  1  0
 44 87  1  0
 44 88  1  0
 45 89  1  0
 46 90  1  0
 46 91  1  0
 46 92  1  0
M  CHG  2   5   1  25   1
M  END
>  <LF dG>
-12.418

>  <LF VSscore>
-13.493

>  <LF Rank Score>
-10.113

>  <LF LE>
-0.27

>  <Favorite_cresset>
false

>  <Protein_cresset>
haan-CatS_chainA-aligned_P

>  <MW_cresset>
695.8

>  <#Atoms_cresset>
46

>  <SlogP_cresset>
5.6

>  <TPSA_cresset>
84.3

>  <Flexibility_cresset>
12.4

>  <#RB_cresset>
12

>  <Rof5_cresset>
2

>  <Filename_cresset>
CatS_157.pdb

>  <Preferred Pose_cresset>
true

>  <_cresset_fieldpoints>
    -5     -14.296621      11.921948      -1.973455     -2.0490
    -5     -11.986622      11.844948      -8.672455     -5.0460
    -5      -5.357622      14.546948      -8.685455     -3.4565
    -6      -6.447622      12.286948      -4.145455     11.7645
    -6      -4.840622      13.240948      -5.105455     13.2615
    -6      -0.522622      12.504949      -9.906455      7.7455
    -6       1.216378      15.037949      -3.435455      4.6885
    -6      -2.295622      19.547947      -5.272455      4.1155
    -6      -3.626622      11.349948     -12.043455      7.4770
    -6      -5.761622       9.736948     -12.541455      6.9515
    -6      -7.776622       8.394948     -12.385455      7.3190
    -6      -1.891622       5.762948      -5.583455      5.0395
    -6      -7.026622       7.481948     -10.734455      7.1985
    -6      -3.176622      18.180948      -7.433455      4.3395
    -7      -2.144622      19.647949      -5.088455     -1.9175
    -7       1.268378      15.202948      -3.428455     -2.3280
    -7      -3.746622      16.107948      -1.126455     -1.9810
    -7       1.214378      14.023949      -6.494455     -2.1595
    -7      -3.191622      18.299948      -7.463455     -1.6835
    -7      -2.233622      15.980948      -9.680455     -1.4750
    -7      -5.156622      15.168948      -6.570455     -2.9940
    -7      -4.452622      11.879949      -4.926455     -4.0405
    -7      -1.889622       9.465948      -6.595455     -2.9835
    -7      -0.118622      14.093948      -9.441455     -1.7555
    -7      -4.592622      14.071948     -10.708455     -1.9575
    -7      -2.512622       8.414948      -8.320456     -2.5900
    -7      -6.252622       7.429948     -10.143456     -2.5065
    -7      -2.136622       6.607948      -2.394455     -1.7250
    -7      -4.353622       9.706948      -2.461455     -3.2110
    -7      -8.608622       9.518949       1.070545     -2.3385
    -7      -8.474622      15.868948      -2.176455     -2.0270
    -7     -11.509622      11.551949       2.024545     -1.6160
    -7      -7.422622       7.737948       0.688545     -1.9385
    -7     -12.053621      16.260948       0.166545     -1.2050
    -7      -7.805622      15.903948      -0.028455     -1.5785
    -7      -8.361622      11.367949      -5.274455     -4.1225
    -7     -13.435621      13.155949       0.991545     -1.3970
    -7      -5.950622       3.526948       0.306545     -1.1600
    -7      -5.243622      14.633948      -9.593455     -1.9695
    -7      -8.206622      12.724948      -7.583455     -2.7850
    -7      -9.642622       8.040948      -6.101455     -2.8255
    -7      -8.918622       7.146948      -6.493455     -2.8445
    -7      -7.757622       6.438948      -6.992455     -2.9175
    -7      -9.929622      11.176949     -12.579454     -1.8565
    -8      -2.026622      16.292948      -4.140455      6.4725
    -8      -2.272622      12.300948      -8.059455      4.7710
    -8      -5.703622       5.932948      -2.654455      6.2540
    -8      -6.507622      10.393949      -9.157455      5.4165
    -8      -5.540622       7.664948      -4.724455      7.2210
    -8      -8.217622       9.303948      -2.452455      5.6190
    -8      -7.190622       8.635948      -3.409455      5.8700
    -8     -10.112621      12.828948      -0.911455      6.2545
    -8     -10.718622      13.039948      -1.436455      6.2835
    -8      -6.408622       9.752949      -7.881455      4.9435
    -8      -9.799622       9.128948     -10.050455      4.1875

$$$$
