CatS_174_D
  xed2sdf_05210316543D
 
 90 94  0  0  1  0  0  0  0  0999 V2000
  -10.3942    8.8265  -10.0316 C   0  0  0  0  0  0  0  0  0  0  0  0
  -10.1822   10.3745   -9.1146 S   0  0  0  0  0  0  0  0  0  0  0  0
  -10.7812   10.1995   -7.8306 O   0  0  0  0  0  0  0  0  0  0  0  0
  -10.6492   11.4515   -9.9276 O   0  0  0  0  0  0  0  0  0  0  0  0
   -8.5772   10.5735   -8.9076 N   0  0  0  0  0  0  0  0  0  0  0  0
   -7.7742   10.7065  -10.1416 C   0  0  0  0  0  0  0  0  0  0  0  0
   -6.3992   11.3495   -9.8536 C   0  0  0  0  0  0  0  0  0  0  0  0
   -5.7042   10.6015   -8.7296 C   0  0  0  0  0  0  0  0  0  0  0  0
   -6.3832    9.8165   -7.8896 C   0  0  0  0  0  0  0  0  0  0  0  0
   -5.3792    9.2965   -7.0406 C   0  0  0  0  0  0  0  0  0  0  0  0
   -4.2202    9.8085   -7.3996 N   0  0  0  0  0  0  0  0  0  0  0  0
   -4.3752   10.6385   -8.4546 N   0  0  0  0  0  0  0  0  0  0  0  0
   -3.2932   11.4235   -9.0626 C   0  0  0  0  0  0  0  0  0  0  0  0
   -3.1272   12.7825   -8.3536 C   0  0  0  0  0  0  0  0  0  0  0  0
   -2.6092   12.5965   -6.9106 C   0  0  0  0  0  0  0  0  0  0  0  0
   -2.0712   13.8715   -6.3126 N   0  3  0  0  0  0  0  0  0  0  0  0
   -1.2512   13.6515   -5.0536 C   0  0  0  0  0  0  0  0  0  0  0  0
   -1.6782   14.5445   -3.8716 C   0  0  0  0  0  0  0  0  0  0  0  0
   -1.7982   16.0295   -4.2746 C   0  0  0  0  0  0  0  0  0  0  0  0
   -2.5802   16.2325   -5.5946 C   0  0  0  0  0  0  0  0  0  0  0  0
   -3.1502   14.9165   -6.1616 C   0  0  0  0  0  0  0  0  0  0  0  0
   -2.5282   16.7575   -3.1646 C   0  0  0  0  0  0  0  0  0  0  0  0
   -3.7272   16.6295   -2.9636 O   0  0  0  0  0  0  0  0  0  0  0  0
   -1.7262   17.5455   -2.4336 N   0  0  0  0  0  0  0  0  0  0  0  0
   -4.3802   13.4835   -8.3406 O   0  0  0  0  0  0  0  0  0  0  0  0
   -5.5162    8.3385   -5.9586 C   0  0  0  0  0  0  0  0  0  0  0  0
   -4.6062    7.3055   -5.8356 C   0  0  0  0  0  0  0  0  0  0  0  0
   -4.7092    6.4045   -4.8036 C   0  0  0  0  0  0  0  0  0  0  0  0
   -5.7192    6.4885   -3.8666 C   0  0  0  0  0  0  0  0  0  0  0  0
   -6.6162    7.5455   -3.9826 C   0  0  0  0  0  0  0  0  0  0  0  0
   -6.5182    8.4545   -5.0136 C   0  0  0  0  0  0  0  0  0  0  0  0
   -7.9422    7.8005   -2.7936 S   0  0  0  0  0  0  0  0  0  0  0  0
   -8.0882    9.5645   -2.3716 C   0  0  0  0  0  0  0  0  0  0  0  0
   -9.5372   10.0415   -2.1376 C   0  0  0  0  0  0  0  0  0  0  0  0
   -9.6672   11.5205   -1.8706 N   0  3  0  0  0  0  0  0  0  0  0  0
  -11.0962   11.8935   -1.5556 C   0  0  0  0  0  0  0  0  0  0  0  0
  -11.2572   13.4155   -1.3676 C   0  0  0  0  0  0  0  0  0  0  0  0
  -10.2942   13.9115   -0.2736 C   0  0  0  0  0  0  0  0  0  0  0  0
   -8.8412   13.5585   -0.6396 C   0  0  0  0  0  0  0  0  0  0  0  0
   -8.7002   12.0345   -0.8296 C   0  0  0  0  0  0  0  0  0  0  0  0
  -10.4212   15.2875   -0.1236 F   0  0  0  0  0  0  0  0  0  0  0  0
  -10.6262   13.3305    0.9444 F   0  0  0  0  0  0  0  0  0  0  0  0
   -5.7052    5.3965   -2.7926 C   0  0  0  0  0  0  0  0  0  0  0  0
   -5.0582    4.2575   -3.2616 F   0  0  0  0  0  0  0  0  0  0  0  0
   -5.0632    5.7835   -1.6216 F   0  0  0  0  0  0  0  0  0  0  0  0
   -6.9882    5.0065   -2.4126 F   0  0  0  0  0  0  0  0  0  0  0  0
   -7.8952    9.6365   -7.9766 C   0  0  0  0  0  0  0  0  0  0  0  0
   -2.4532   13.3205   -8.8596 H   0  0  0  0  0  0  0  0  0  0  0  0
   -9.4942    8.4295  -10.2126 H   0  0  0  0  0  0  0  0  0  0  0  0
  -10.9422    8.1865   -9.4926 H   0  0  0  0  0  0  0  0  0  0  0  0
  -10.8622    9.0085  -10.8966 H   0  0  0  0  0  0  0  0  0  0  0  0
   -8.2722   11.2775  -10.7956 H   0  0  0  0  0  0  0  0  0  0  0  0
   -7.6212    9.7925  -10.5176 H   0  0  0  0  0  0  0  0  0  0  0  0
   -6.5262   12.3055   -9.5906 H   0  0  0  0  0  0  0  0  0  0  0  0
   -5.8342   11.3005  -10.6776 H   0  0  0  0  0  0  0  0  0  0  0  0
   -3.5022   11.5785  -10.0276 H   0  0  0  0  0  0  0  0  0  0  0  0
   -2.4392   10.9115   -8.9686 H   0  0  0  0  0  0  0  0  0  0  0  0
   -1.8812   11.9115   -6.9176 H   0  0  0  0  0  0  0  0  0  0  0  0
   -3.3842   12.3055   -6.3496 H   0  0  0  0  0  0  0  0  0  0  0  0
   -1.5002   14.2115   -6.9366 H   0  0  0  0  0  0  0  0  0  0  0  0
   -0.2922   13.8395   -5.2646 H   0  0  0  0  0  0  0  0  0  0  0  0
   -1.3992   12.7035   -4.7716 H   0  0  0  0  0  0  0  0  0  0  0  0
   -1.0002   14.4605   -3.1406 H   0  0  0  0  0  0  0  0  0  0  0  0
   -2.5802   14.2375   -3.5656 H   0  0  0  0  0  0  0  0  0  0  0  0
   -0.8752   16.3855   -4.4176 H   0  0  0  0  0  0  0  0  0  0  0  0
   -1.9652   16.6355   -6.2726 H   0  0  0  0  0  0  0  0  0  0  0  0
   -3.3542   16.8335   -5.3956 H   0  0  0  0  0  0  0  0  0  0  0  0
   -3.8572   14.5705   -5.5436 H   0  0  0  0  0  0  0  0  0  0  0  0
   -3.5362   15.1035   -7.0656 H   0  0  0  0  0  0  0  0  0  0  0  0
   -0.8662   17.6085   -2.6076 H   0  0  0  0  0  0  0  0  0  0  0  0
   -2.0662   18.0085   -1.7666 H   0  0  0  0  0  0  0  0  0  0  0  0
   -4.7992   13.5015   -9.2556 H   0  0  0  0  0  0  0  0  0  0  0  0
   -3.8672    7.2135   -6.5036 H   0  0  0  0  0  0  0  0  0  0  0  0
   -4.0352    5.6685   -4.7296 H   0  0  0  0  0  0  0  0  0  0  0  0
   -7.1772    9.2035   -5.0796 H   0  0  0  0  0  0  0  0  0  0  0  0
   -7.6962   10.1005   -3.1196 H   0  0  0  0  0  0  0  0  0  0  0  0
   -7.6012    9.6935   -1.5086 H   0  0  0  0  0  0  0  0  0  0  0  0
   -9.9092    9.5455   -1.3526 H   0  0  0  0  0  0  0  0  0  0  0  0
  -10.0402    9.8595   -2.9826 H   0  0  0  0  0  0  0  0  0  0  0  0
   -9.4592   11.9435   -2.6516 H   0  0  0  0  0  0  0  0  0  0  0  0
  -11.3772   11.4285   -0.7166 H   0  0  0  0  0  0  0  0  0  0  0  0
  -11.6702   11.6125   -2.3256 H   0  0  0  0  0  0  0  0  0  0  0  0
  -12.1992   13.6205   -1.1026 H   0  0  0  0  0  0  0  0  0  0  0  0
  -11.0432   13.8785   -2.2276 H   0  0  0  0  0  0  0  0  0  0  0  0
   -8.2302   13.8605    0.0934 H   0  0  0  0  0  0  0  0  0  0  0  0
   -8.5962   14.0185   -1.4926 H   0  0  0  0  0  0  0  0  0  0  0  0
   -7.7662   11.8245   -1.1186 H   0  0  0  0  0  0  0  0  0  0  0  0
   -8.9062   11.5875    0.0414 H   0  0  0  0  0  0  0  0  0  0  0  0
   -8.0842    8.7015   -8.2786 H   0  0  0  0  0  0  0  0  0  0  0  0
   -8.2552    9.8305   -7.0636 H   0  0  0  0  0  0  0  0  0  0  0  0
  1  2  1  0
  2  3  2  0
  2  4  2  0
  2  5  1  0
  5  6  1  0
  5 47  1  0
  6  7  1  0
  7  8  1  0
  8  9  2  0
  8 12  1  0
  9 10  1  0
  9 47  1  0
 10 11  2  0
 10 26  1  0
 11 12  1  0
 12 13  1  0
 13 14  1  0
 14 15  1  0
 14 25  1  0
 15 16  1  0
 16 17  1  0
 16 21  1  0
 17 18  1  0
 18 19  1  0
 19 20  1  0
 19 22  1  0
 20 21  1  0
 22 23  2  0
 22 24  1  0
 26 27  2  0
 26 31  1  0
 27 28  1  0
 28 29  2  0
 29 30  1  0
 29 43  1  0
 30 31  2  0
 30 32  1  0
 32 33  1  0
 33 34  1  0
 34 35  1  0
 35 36  1  0
 35 40  1  0
 36 37  1  0
 37 38  1  0
 38 39  1  0
 38 41  1  0
 38 42  1  0
 39 40  1  0
 43 44  1  0
 43 45  1  0
 43 46  1  0
  1 49  1  0
  1 50  1  0
  1 51  1  0
  6 52  1  0
  6 53  1  0
  7 54  1  0
  7 55  1  0
 13 56  1  0
 13 57  1  0
 14 48  1  0
 15 58  1  0
 15 59  1  0
 16 60  1  0
 17 61  1  0
 17 62  1  0
 18 63  1  0
 18 64  1  0
 19 65  1  0
 20 66  1  0
 20 67  1  0
 21 68  1  0
 21 69  1  0
 24 70  1  0
 24 71  1  0
 25 72  1  0
 27 73  1  0
 28 74  1  0
 31 75  1  0
 33 76  1  0
 33 77  1  0
 34 78  1  0
 34 79  1  0
 35 80  1  0
 36 81  1  0
 36 82  1  0
 37 83  1  0
 37 84  1  0
 39 85  1  0
 39 86  1  0
 40 87  1  0
 40 88  1  0
 47 89  1  0
 47 90  1  0
M  CHG  2  16   1  35   1
M  END
>  <LF dG>
-12.383

>  <LF VSscore>
-13.785

>  <LF Rank Score>
-9.482

>  <LF LE>
-0.263

>  <Favorite_cresset>
false

>  <Protein_cresset>
haan-CatS_chainA-aligned_P

>  <MW_cresset>
710.8

>  <#Atoms_cresset>
47

>  <SlogP_cresset>
3.6

>  <TPSA_cresset>
127.4

>  <Flexibility_cresset>
13.4

>  <#RB_cresset>
13

>  <Rof5_cresset>
1

>  <Filename_cresset>
CatS_174.pdb

>  <Preferred Pose_cresset>
true

>  <_cresset_fieldpoints>
    -5     -10.680204      12.816487      -8.185561     -5.1565
    -5      -9.483204      12.687487      -7.997561     -5.1350
    -5      -5.049204      15.662487      -3.647561     -9.2285
    -5      -3.047204       9.981487      -5.599561     -3.7175
    -5      -5.584205      13.086487      -6.908561     -7.8470
    -5      -4.888205      17.305487      -1.834561     -8.5985
    -5      -7.412204       5.957487       0.381439     -1.3290
    -5     -11.195204      15.629487       2.673439     -2.6415
    -6      -8.466205       8.738487     -12.395561      7.9535
    -6      -4.516204      13.370487     -11.004560     14.4085
    -6      -8.587204      11.836487      -4.496561      7.1235
    -6      -0.297204      14.306487      -8.597561     10.6565
    -6       0.973795      17.330486      -3.394561      9.7685
    -6      -2.257205       5.244487      -6.249561      4.3910
    -6     -12.425204       9.609488      -3.422561      3.2185
    -6      -9.205204      13.424487      -3.939561      7.0385
    -7      -9.987205       9.167487      -5.482561     -3.3630
    -7      -8.594204      11.342487      -5.114561     -3.5970
    -7     -10.347204      11.244487     -12.331561     -1.8625
    -7      -8.271204      12.769487      -7.449561     -2.7685
    -7      -4.501204      13.532487     -11.449561     -1.9685
    -7      -2.855204       8.223487      -8.707561     -2.5820
    -7      -2.057204       9.328487      -6.718561     -3.0095
    -7      -6.822205       7.362487     -10.106562     -2.5520
    -7       0.342795      12.909487      -8.083561     -1.9680
    -7      -3.898204      15.660487      -9.503561     -1.8615
    -7      -1.619205      15.825487      -8.884562     -2.1115
    -7       0.490796      15.843487      -6.803561     -2.2095
    -7       1.499795      15.437487      -3.907561     -1.6155
    -7       1.168796      15.934486      -2.804561     -1.6215
    -7      -5.101204      14.738487      -3.322561     -2.3680
    -7       0.588796      12.299487      -2.742561     -1.1220
    -7      -1.652205      19.285488      -4.584561     -1.7930
    -7      -4.621204       9.448487      -2.313561     -2.8870
    -7      -1.132205      15.586487      -0.745561     -1.7645
    -7      -2.074204       6.007487      -2.953561     -1.7110
    -7     -11.628204       7.656487      -2.550561     -1.4625
    -7     -12.530205       8.949487      -1.835561     -1.5340
    -7      -8.565205       9.117487       0.904439     -2.1990
    -7     -13.672205      12.121487       0.571439     -1.5480
    -7     -13.644205      14.687487       0.772439     -1.3920
    -7      -7.355205      16.394487      -1.001561     -1.2335
    -7      -8.182204      15.014487       2.416439     -1.3940
    -7      -9.138205      13.945487      -4.015561     -2.1890
    -7     -12.742205      16.092487      -2.370561     -1.1975
    -7      -7.757205      12.444487       2.335439     -1.5730
    -7      -8.043204       6.374487      -6.989561     -2.9595
    -7      -5.682204       2.762487      -0.318561     -1.1475
    -7      -5.927205      12.965487      -6.534561     -3.6350
    -7     -10.433205       9.909487       1.165439     -2.2780
    -8     -10.163204       9.249487      -9.779561      4.1760
    -8      -6.599205       9.699487      -7.841561      4.9515
    -8      -5.682204       5.535487      -2.961561      6.2395
    -8      -8.500204       8.992487      -2.510561      5.5185
    -8      -7.250205       8.337487      -3.669561      5.7500
    -8      -6.755204      10.389487      -9.124561      5.4130
    -8      -5.615204       7.419487      -4.907561      7.2085
    -8      -2.579205      12.077487      -8.095561      4.5880
    -8      -2.198205      15.263487      -4.843561      5.9710
    -8     -10.211205      13.645487      -0.491561      6.4480

$$$$
