CatS_255_D
  xed2sdf_05210316543D
 
 96100  0  0  1  0  0  0  0  0999 V2000
  -11.8010   15.6083    0.0488 C   0  0  0  0  0  0  0  0  0  0  0  0
  -11.9940   14.1003    0.3118 C   0  0  0  0  0  0  0  0  0  0  0  0
  -13.4120   13.7413   -0.1732 C   0  0  0  0  0  0  0  0  0  0  0  0
  -10.9230   13.2163   -0.3942 C   0  0  0  0  0  0  0  0  0  0  0  0
  -11.3860   11.7433   -0.5552 C   0  0  0  0  0  0  0  0  0  0  0  0
  -10.2080   10.7443   -0.6772 C   0  0  0  0  0  0  0  0  0  0  0  0
   -8.9990   11.3403   -1.3612 N   0  3  0  0  0  0  0  0  0  0  0  0
   -8.4850   12.5933   -0.6772 C   0  0  0  0  0  0  0  0  0  0  0  0
   -9.5230   13.2533    0.2588 C   0  0  0  0  0  0  0  0  0  0  0  0
   -7.9180   10.3293   -1.6712 C   0  0  0  0  0  0  0  0  0  0  0  0
   -8.1030    9.6203   -3.0332 C   0  0  0  0  0  0  0  0  0  0  0  0
   -7.7290    7.8513   -2.9002 S   0  0  0  0  0  0  0  0  0  0  0  0
   -6.4280    7.5523   -4.1072 C   0  0  0  0  0  0  0  0  0  0  0  0
   -6.2580    8.4953   -5.0962 C   0  0  0  0  0  0  0  0  0  0  0  0
   -5.2510    8.3623   -6.0352 C   0  0  0  0  0  0  0  0  0  0  0  0
   -4.4250    7.2563   -5.9632 C   0  0  0  0  0  0  0  0  0  0  0  0
   -4.6120    6.3063   -4.9872 C   0  0  0  0  0  0  0  0  0  0  0  0
   -5.6150    6.4293   -4.0462 C   0  0  0  0  0  0  0  0  0  0  0  0
   -5.7440    5.3173   -3.0082 C   0  0  0  0  0  0  0  0  0  0  0  0
   -6.9450    4.6363   -3.1652 F   0  0  0  0  0  0  0  0  0  0  0  0
   -4.7180    4.3873   -3.1402 F   0  0  0  0  0  0  0  0  0  0  0  0
   -5.7000    5.7713   -1.6922 F   0  0  0  0  0  0  0  0  0  0  0  0
   -5.0460    9.3553   -7.0762 C   0  0  0  0  0  0  0  0  0  0  0  0
   -5.9430    9.7643   -8.0892 C   0  0  0  0  0  0  0  0  0  0  0  0
   -5.2580   10.6903   -8.7622 C   0  0  0  0  0  0  0  0  0  0  0  0
   -4.0200   10.9063   -8.2442 N   0  0  0  0  0  0  0  0  0  0  0  0
   -3.9300   10.0393   -7.2092 N   0  0  0  0  0  0  0  0  0  0  0  0
   -2.9680   11.8573   -8.6302 C   0  0  0  0  0  0  0  0  0  0  0  0
   -2.9540   13.2023   -7.8682 C   0  0  0  0  0  0  0  0  0  0  0  0
   -2.2240   13.1403   -6.5072 C   0  0  0  0  0  0  0  0  0  0  0  0
   -2.0810   14.4403   -5.7442 N   0  3  0  0  0  0  0  0  0  0  0  0
   -0.9520   15.3013   -6.2642 C   0  0  0  0  0  0  0  0  0  0  0  0
   -0.9460   16.7003   -5.6082 C   0  0  0  0  0  0  0  0  0  0  0  0
   -0.8830   16.5693   -4.0722 C   0  0  0  0  0  0  0  0  0  0  0  0
   -2.0450   15.7033   -3.5442 C   0  0  0  0  0  0  0  0  0  0  0  0
   -2.0250   14.3243   -4.2362 C   0  0  0  0  0  0  0  0  0  0  0  0
   -4.2990   13.6383   -7.6282 O   0  0  0  0  0  0  0  0  0  0  0  0
   -5.8390   11.3723   -9.9902 C   0  0  0  0  0  0  0  0  0  0  0  0
   -7.3490   11.0753  -10.1512 C   0  0  0  0  0  0  0  0  0  0  0  0
   -7.6800    9.6603   -9.8772 N   0  0  0  0  0  0  0  0  0  0  0  0
   -7.3610    9.3563   -8.4632 C   0  0  0  0  0  0  0  0  0  0  0  0
   -9.0920    9.1073  -10.4692 S   0  0  0  0  0  0  0  0  0  0  0  0
   -9.1500    9.4903  -11.8432 O   0  0  0  0  0  0  0  0  0  0  0  0
   -9.1690    7.7143  -10.1692 O   0  0  0  0  0  0  0  0  0  0  0  0
  -10.4320    9.9563   -9.5892 C   0  0  0  0  0  0  0  0  0  0  0  0
  -11.9660   13.8683    1.7288 O   0  0  0  0  0  0  0  0  0  0  0  0
   -2.4540   13.8413   -8.4522 H   0  0  0  0  0  0  0  0  0  0  0  0
  -11.7010   16.0803    0.9248 H   0  0  0  0  0  0  0  0  0  0  0  0
  -10.9830   15.7523   -0.5072 H   0  0  0  0  0  0  0  0  0  0  0  0
  -12.5950   15.9683   -0.4402 H   0  0  0  0  0  0  0  0  0  0  0  0
  -13.9560   13.4383    0.6088 H   0  0  0  0  0  0  0  0  0  0  0  0
  -13.8390   14.5423   -0.5912 H   0  0  0  0  0  0  0  0  0  0  0  0
  -13.3600   13.0083   -0.8522 H   0  0  0  0  0  0  0  0  0  0  0  0
  -10.8310   13.6353   -1.2982 H   0  0  0  0  0  0  0  0  0  0  0  0
  -11.9510   11.6743   -1.3772 H   0  0  0  0  0  0  0  0  0  0  0  0
  -11.8960   11.5003    0.2698 H   0  0  0  0  0  0  0  0  0  0  0  0
  -10.5150    9.9503   -1.2022 H   0  0  0  0  0  0  0  0  0  0  0  0
   -9.9320   10.4913    0.2498 H   0  0  0  0  0  0  0  0  0  0  0  0
   -9.2870   11.6203   -2.1792 H   0  0  0  0  0  0  0  0  0  0  0  0
   -8.2230   13.2543   -1.3812 H   0  0  0  0  0  0  0  0  0  0  0  0
   -7.7080   12.3213   -0.1092 H   0  0  0  0  0  0  0  0  0  0  0  0
   -9.5480   12.7613    1.1288 H   0  0  0  0  0  0  0  0  0  0  0  0
   -9.2600   14.2053    0.4178 H   0  0  0  0  0  0  0  0  0  0  0  0
   -7.9160    9.6363   -0.9502 H   0  0  0  0  0  0  0  0  0  0  0  0
   -7.0540   10.8303   -1.7182 H   0  0  0  0  0  0  0  0  0  0  0  0
   -7.4920   10.0373   -3.7052 H   0  0  0  0  0  0  0  0  0  0  0  0
   -9.0560    9.7233   -3.3182 H   0  0  0  0  0  0  0  0  0  0  0  0
   -6.8690    9.2853   -5.1372 H   0  0  0  0  0  0  0  0  0  0  0  0
   -3.6850    7.1453   -6.6262 H   0  0  0  0  0  0  0  0  0  0  0  0
   -4.0090    5.5093   -4.9592 H   0  0  0  0  0  0  0  0  0  0  0  0
   -3.0760   12.0563   -9.6042 H   0  0  0  0  0  0  0  0  0  0  0  0
   -2.1040   11.4103   -8.3992 H   0  0  0  0  0  0  0  0  0  0  0  0
   -1.3050   12.7813   -6.6722 H   0  0  0  0  0  0  0  0  0  0  0  0
   -2.8010   12.5633   -5.9292 H   0  0  0  0  0  0  0  0  0  0  0  0
   -2.8430   14.8993   -5.9322 H   0  0  0  0  0  0  0  0  0  0  0  0
   -1.0520   15.4053   -7.2532 H   0  0  0  0  0  0  0  0  0  0  0  0
   -0.0890   14.8503   -6.0372 H   0  0  0  0  0  0  0  0  0  0  0  0
   -1.7780   17.1913   -5.8662 H   0  0  0  0  0  0  0  0  0  0  0  0
   -0.1420   17.2053   -5.9242 H   0  0  0  0  0  0  0  0  0  0  0  0
   -0.9380   17.4793   -3.6622 H   0  0  0  0  0  0  0  0  0  0  0  0
   -0.0210   16.1273   -3.8262 H   0  0  0  0  0  0  0  0  0  0  0  0
   -2.9140   16.1603   -3.7322 H   0  0  0  0  0  0  0  0  0  0  0  0
   -1.9410   15.5783   -2.5572 H   0  0  0  0  0  0  0  0  0  0  0  0
   -1.1860   13.8443   -3.9802 H   0  0  0  0  0  0  0  0  0  0  0  0
   -2.8350   13.8203   -3.9372 H   0  0  0  0  0  0  0  0  0  0  0  0
   -4.4810   13.7383   -6.6442 H   0  0  0  0  0  0  0  0  0  0  0  0
   -5.3540   11.0463  -10.8022 H   0  0  0  0  0  0  0  0  0  0  0  0
   -5.7270   12.3593   -9.8802 H   0  0  0  0  0  0  0  0  0  0  0  0
   -7.6230   11.2953  -11.0872 H   0  0  0  0  0  0  0  0  0  0  0  0
   -7.8410   11.6353   -9.4852 H   0  0  0  0  0  0  0  0  0  0  0  0
   -8.0030    9.8463   -7.8732 H   0  0  0  0  0  0  0  0  0  0  0  0
   -7.4370    8.3673   -8.3392 H   0  0  0  0  0  0  0  0  0  0  0  0
  -10.9580    9.2833   -9.0692 H   0  0  0  0  0  0  0  0  0  0  0  0
  -10.0480   10.6383   -8.9662 H   0  0  0  0  0  0  0  0  0  0  0  0
  -11.0280   10.4163  -10.2472 H   0  0  0  0  0  0  0  0  0  0  0  0
  -11.9060   12.8883    1.9428 H   0  0  0  0  0  0  0  0  0  0  0  0
  1  2  1  0
  2  3  1  0
  2  4  1  0
  2 46  1  0
  4  5  1  0
  4  9  1  0
  5  6  1  0
  6  7  1  0
  7  8  1  0
  7 10  1  0
  8  9  1  0
 10 11  1  0
 11 12  1  0
 12 13  1  0
 13 14  2  0
 13 18  1  0
 14 15  1  0
 15 16  2  0
 15 23  1  0
 16 17  1  0
 17 18  2  0
 18 19  1  0
 19 20  1  0
 19 21  1  0
 19 22  1  0
 23 24  1  0
 23 27  2  0
 24 25  2  0
 24 41  1  0
 25 26  1  0
 25 38  1  0
 26 27  1  0
 26 28  1  0
 28 29  1  0
 29 30  1  0
 29 37  1  0
 30 31  1  0
 31 32  1  0
 31 36  1  0
 32 33  1  0
 33 34  1  0
 34 35  1  0
 35 36  1  0
 38 39  1  0
 39 40  1  0
 40 41  1  0
 40 42  1  0
 42 43  2  0
 42 44  2  0
 42 45  1  0
  1 48  1  0
  1 49  1  0
  1 50  1  0
  3 51  1  0
  3 52  1  0
  3 53  1  0
  4 54  1  0
  5 55  1  0
  5 56  1  0
  6 57  1  0
  6 58  1  0
  7 59  1  0
  8 60  1  0
  8 61  1  0
  9 62  1  0
  9 63  1  0
 10 64  1  0
 10 65  1  0
 11 66  1  0
 11 67  1  0
 14 68  1  0
 16 69  1  0
 17 70  1  0
 28 71  1  0
 28 72  1  0
 29 47  1  0
 30 73  1  0
 30 74  1  0
 31 75  1  0
 32 76  1  0
 32 77  1  0
 33 78  1  0
 33 79  1  0
 34 80  1  0
 34 81  1  0
 35 82  1  0
 35 83  1  0
 36 84  1  0
 36 85  1  0
 37 86  1  0
 38 87  1  0
 38 88  1  0
 39 89  1  0
 39 90  1  0
 41 91  1  0
 41 92  1  0
 45 93  1  0
 45 94  1  0
 45 95  1  0
 46 96  1  0
M  CHG  2   7   1  31   1
M  END
>  <LF dG>
-12.906

>  <LF VSscore>
-14.113

>  <LF Rank Score>
-10.119

>  <LF LE>
-0.281

>  <Favorite_cresset>
false

>  <Protein_cresset>
haan-CatS_chainA-aligned_P

>  <MW_cresset>
689.9

>  <#Atoms_cresset>
46

>  <SlogP_cresset>
5.1

>  <TPSA_cresset>
104.5

>  <Flexibility_cresset>
14.4

>  <#RB_cresset>
14

>  <Rof5_cresset>
2

>  <Filename_cresset>
CatS_255.pdb

>  <Preferred Pose_cresset>
true

>  <_cresset_fieldpoints>
    -5     -12.330957      15.079256       3.033836     -6.9040
    -5      -2.388958       9.754255      -6.129163     -3.4095
    -5      -6.709958       7.828256     -11.097163     -5.9065
    -5      -8.797958       7.158256     -12.328163     -5.9720
    -5      -2.911958       8.767256      -8.861163     -2.9630
    -6      -9.508958      12.112255      -4.150163     11.9115
    -6      -8.665958      10.787255      -5.751163     11.0325
    -6      -2.120958       4.991255      -6.118163      3.6405
    -6     -11.501958      11.248256       2.501837      8.4435
    -6       2.138042      15.632256      -5.346163      4.5810
    -6      -4.870958      14.774256      -5.279163     13.4565
    -6      -0.191958      13.224256      -9.004164      7.5220
    -6       1.279042      13.832255      -4.310163      4.8460
    -6       0.326042      14.218255      -1.976163      4.4970
    -6      -3.782958      13.198256     -11.415163      6.5280
    -7     -12.389957      13.717256      -3.288163     -2.1695
    -7     -13.664958      15.167255       2.866837     -1.6620
    -7     -11.049957      11.348255      -3.854163     -2.4590
    -7     -10.206958      14.833256       2.982837     -2.1000
    -7     -14.366959      10.611256       0.033837     -1.5615
    -7     -13.507957      11.374255       2.200837     -1.8310
    -7     -10.927958      12.514256      -3.715163     -2.4305
    -7      -9.260958       7.811255       0.344837     -2.0035
    -7     -10.766958      11.131255       2.677837     -2.2565
    -7      -9.344958      15.353255      -2.473163     -2.1415
    -7      -4.385958      16.724255      -5.887163     -2.1545
    -7      -7.827958      10.419255       1.694837     -2.2075
    -7      -7.592958      11.547256      -5.836164     -3.2885
    -7      -4.623958       9.896255      -2.617163     -2.9850
    -7      -2.131958       8.708256      -8.216164     -2.5390
    -7      -1.998958       9.940255      -5.959163     -2.9900
    -7      -6.116958       2.641255      -0.618163     -1.1560
    -7      -8.733958       5.428256      -0.439163     -1.4615
    -7      -5.953958       8.172256     -11.174164     -2.7265
    -7       0.224042      13.421255      -8.759163     -2.0125
    -7      -4.433958      14.473255     -10.369164     -1.8435
    -7      -5.172958      14.778255      -9.536163     -1.8755
    -7      -3.768958      16.310255      -7.697164     -2.3950
    -7       0.814042      12.647255      -5.069163     -1.8850
    -7      -5.274958      12.030255      -5.356163     -3.6560
    -7       0.547042      17.120255      -8.586164     -1.1235
    -7       1.376042      13.942255      -4.144163     -1.9365
    -7       0.667042      14.227255      -2.161163     -1.5510
    -7      -3.505958      18.626255      -4.474163     -1.5380
    -7       2.223042      15.633255      -5.088163     -1.5595
    -7      -5.126958      14.975256      -4.924163     -2.1965
    -7      -7.739958       6.172256      -6.923163     -3.0785
    -7      -9.863958      11.787255     -12.292164     -1.8845
    -7      -9.427958       8.836255      -6.032163     -3.2485
    -7      -7.418958      12.656256      -3.927163     -2.3815
    -7      -8.705957       6.984255      -6.560163     -2.9495
    -8     -10.362958      12.356256      -0.235163      6.0525
    -8     -12.000957      13.012256      -0.400163      5.9450
    -8     -12.057959      14.154255      -0.441163      5.5920
    -8      -7.179958       8.525255      -3.788163      6.0805
    -8      -7.802958       9.117255      -2.568163      5.6390
    -8      -5.433958       7.397255      -5.036163      7.2160
    -8      -5.712958       5.466255      -3.165163      6.2525
    -8      -6.175958       9.694256      -8.023163      4.9200
    -8      -6.370958      10.677256      -9.083163      5.3705
    -8      -2.275958      12.584255      -7.661163      4.6940
    -8      -9.939958       9.795256      -9.748163      4.1670
    -8      -1.319958      15.903255      -4.627163      5.9900

$$$$
