CatS_191_D
  xed2sdf_05210316543D
 
100104  0  0  1  0  0  0  0  0999 V2000
   -9.7887   15.7045   -0.8725 C   0  0  0  0  0  0  0  0  0  0  0  0
   -9.4697   14.2925   -1.3855 C   0  0  0  0  0  0  0  0  0  0  0  0
  -10.7477   13.4315   -1.3345 C   0  0  0  0  0  0  0  0  0  0  0  0
  -10.4247   11.9985   -1.8055 C   0  0  0  0  0  0  0  0  0  0  0  0
   -9.3237   11.3715   -0.9785 N   0  3  0  0  0  0  0  0  0  0  0  0
   -8.0727   12.2185   -0.9755 C   0  0  0  0  0  0  0  0  0  0  0  0
   -8.3547   13.6685   -0.5205 C   0  0  0  0  0  0  0  0  0  0  0  0
   -9.0537    9.9085   -1.2525 C   0  0  0  0  0  0  0  0  0  0  0  0
   -8.0287    9.6735   -2.3805 C   0  0  0  0  0  0  0  0  0  0  0  0
   -7.9987    7.9295   -2.8895 S   0  0  0  0  0  0  0  0  0  0  0  0
   -6.6417    7.6605   -4.0445 C   0  0  0  0  0  0  0  0  0  0  0  0
   -6.4947    8.5615   -5.0745 C   0  0  0  0  0  0  0  0  0  0  0  0
   -5.4637    8.4385   -5.9875 C   0  0  0  0  0  0  0  0  0  0  0  0
   -4.5787    7.3875   -5.8415 C   0  0  0  0  0  0  0  0  0  0  0  0
   -4.7357    6.4795   -4.8215 C   0  0  0  0  0  0  0  0  0  0  0  0
   -5.7677    6.5905   -3.9105 C   0  0  0  0  0  0  0  0  0  0  0  0
   -5.8517    5.5185   -2.8245 C   0  0  0  0  0  0  0  0  0  0  0  0
   -5.0207    4.4465   -3.1305 F   0  0  0  0  0  0  0  0  0  0  0  0
   -5.4547    6.0115   -1.5865 F   0  0  0  0  0  0  0  0  0  0  0  0
   -7.1337    5.0055   -2.6495 F   0  0  0  0  0  0  0  0  0  0  0  0
   -5.3057    9.3885   -7.0735 C   0  0  0  0  0  0  0  0  0  0  0  0
   -6.2547    9.7715   -8.0485 C   0  0  0  0  0  0  0  0  0  0  0  0
   -5.6077   10.6735   -8.7875 C   0  0  0  0  0  0  0  0  0  0  0  0
   -4.3357   10.8765   -8.3635 N   0  0  0  0  0  0  0  0  0  0  0  0
   -4.1907   10.0525   -7.3005 N   0  0  0  0  0  0  0  0  0  0  0  0
   -3.2887   11.7665   -8.8815 C   0  0  0  0  0  0  0  0  0  0  0  0
   -2.2257   12.1445   -7.8345 C   0  0  0  0  0  0  0  0  0  0  0  0
   -2.1317   13.6775   -7.7055 C   0  0  0  0  0  0  0  0  0  0  0  0
   -2.4387   14.1845   -6.3185 N   0  3  0  0  0  0  0  0  0  0  0  0
   -1.3587   13.7945   -5.3375 C   0  0  0  0  0  0  0  0  0  0  0  0
   -1.6777   14.2875   -3.9085 C   0  0  0  0  0  0  0  0  0  0  0  0
   -1.9557   15.8055   -3.8715 C   0  0  0  0  0  0  0  0  0  0  0  0
   -3.0937   16.1355   -4.8595 C   0  0  0  0  0  0  0  0  0  0  0  0
   -2.7417   15.6645   -6.2865 C   0  0  0  0  0  0  0  0  0  0  0  0
   -0.7657   16.6325   -4.1285 N   0  0  0  0  0  0  0  0  0  0  0  0
   -0.2547   17.3935   -3.1475 C   0  0  0  0  0  0  0  0  0  0  0  0
   -0.6717   17.4355   -1.9975 O   0  0  0  0  0  0  0  0  0  0  0  0
    0.9253   18.2155   -3.6125 C   0  0  0  0  0  0  0  0  0  0  0  0
    0.4953   19.1815   -4.7285 C   0  0  0  0  0  0  0  0  0  0  0  0
    1.9733   17.3505   -4.0745 O   0  0  0  0  0  0  0  0  0  0  0  0
   -0.9497   11.5995   -8.1995 O   0  0  0  0  0  0  0  0  0  0  0  0
   -6.2557   11.3545   -9.9845 C   0  0  0  0  0  0  0  0  0  0  0  0
   -7.7627   11.0085  -10.0995 C   0  0  0  0  0  0  0  0  0  0  0  0
   -8.0317    9.5905   -9.7645 N   0  0  0  0  0  0  0  0  0  0  0  0
   -7.6907    9.3615   -8.3415 C   0  0  0  0  0  0  0  0  0  0  0  0
   -9.3557    8.8725  -10.4035 S   0  0  0  0  0  0  0  0  0  0  0  0
   -9.3327    7.4875  -10.0625 O   0  0  0  0  0  0  0  0  0  0  0  0
   -9.4337    9.2135  -11.7875 O   0  0  0  0  0  0  0  0  0  0  0  0
  -10.7637    9.6315   -9.5585 C   0  0  0  0  0  0  0  0  0  0  0  0
   -2.4957   11.7615   -6.9505 H   0  0  0  0  0  0  0  0  0  0  0  0
    1.2693   18.7535   -2.8435 H   0  0  0  0  0  0  0  0  0  0  0  0
   -9.0007   16.0525   -0.3645 H   0  0  0  0  0  0  0  0  0  0  0  0
   -9.9837   16.3085   -1.6455 H   0  0  0  0  0  0  0  0  0  0  0  0
  -10.5897   15.6725   -0.2745 H   0  0  0  0  0  0  0  0  0  0  0  0
   -9.1497   14.3365   -2.3315 H   0  0  0  0  0  0  0  0  0  0  0  0
  -11.4437   13.8315   -1.9305 H   0  0  0  0  0  0  0  0  0  0  0  0
  -11.0907   13.4015   -0.3965 H   0  0  0  0  0  0  0  0  0  0  0  0
  -10.1377   12.0275   -2.7625 H   0  0  0  0  0  0  0  0  0  0  0  0
  -11.2487   11.4415   -1.6975 H   0  0  0  0  0  0  0  0  0  0  0  0
   -9.6287   11.3875   -0.1205 H   0  0  0  0  0  0  0  0  0  0  0  0
   -7.6907   12.2365   -1.9005 H   0  0  0  0  0  0  0  0  0  0  0  0
   -7.4277   11.8135   -0.3285 H   0  0  0  0  0  0  0  0  0  0  0  0
   -8.6397   13.6665    0.4375 H   0  0  0  0  0  0  0  0  0  0  0  0
   -7.5207   14.2095   -0.6255 H   0  0  0  0  0  0  0  0  0  0  0  0
   -9.9137    9.4675   -1.5075 H   0  0  0  0  0  0  0  0  0  0  0  0
   -8.6637    9.5195   -0.4175 H   0  0  0  0  0  0  0  0  0  0  0  0
   -7.1197    9.9365   -2.0575 H   0  0  0  0  0  0  0  0  0  0  0  0
   -8.2937   10.2275   -3.1695 H   0  0  0  0  0  0  0  0  0  0  0  0
   -7.1437    9.3165   -5.1645 H   0  0  0  0  0  0  0  0  0  0  0  0
   -3.8177    7.2865   -6.4825 H   0  0  0  0  0  0  0  0  0  0  0  0
   -4.0887    5.7225   -4.7375 H   0  0  0  0  0  0  0  0  0  0  0  0
   -3.7207   12.6045   -9.2135 H   0  0  0  0  0  0  0  0  0  0  0  0
   -2.8157   11.2695   -9.6095 H   0  0  0  0  0  0  0  0  0  0  0  0
   -2.7787   14.0915   -8.3465 H   0  0  0  0  0  0  0  0  0  0  0  0
   -1.1857   13.9325   -7.9075 H   0  0  0  0  0  0  0  0  0  0  0  0
   -3.1947   13.7575   -6.0425 H   0  0  0  0  0  0  0  0  0  0  0  0
   -0.4907   14.1935   -5.6335 H   0  0  0  0  0  0  0  0  0  0  0  0
   -1.3047   12.7965   -5.3155 H   0  0  0  0  0  0  0  0  0  0  0  0
   -0.8997   14.0845   -3.3135 H   0  0  0  0  0  0  0  0  0  0  0  0
   -2.5007   13.8145   -3.5935 H   0  0  0  0  0  0  0  0  0  0  0  0
   -2.2357   16.0365   -2.9405 H   0  0  0  0  0  0  0  0  0  0  0  0
   -3.2457   17.1235   -4.8675 H   0  0  0  0  0  0  0  0  0  0  0  0
   -3.9207   15.6575   -4.5635 H   0  0  0  0  0  0  0  0  0  0  0  0
   -3.5137   15.8525   -6.8935 H   0  0  0  0  0  0  0  0  0  0  0  0
   -1.9277   16.1595   -6.5885 H   0  0  0  0  0  0  0  0  0  0  0  0
   -0.4017   16.6395   -4.9295 H   0  0  0  0  0  0  0  0  0  0  0  0
    1.0423   19.0005   -5.5455 H   0  0  0  0  0  0  0  0  0  0  0  0
   -0.4737   19.0485   -4.9355 H   0  0  0  0  0  0  0  0  0  0  0  0
    0.6373   20.1255   -4.4295 H   0  0  0  0  0  0  0  0  0  0  0  0
    2.5303   17.0085   -3.3095 H   0  0  0  0  0  0  0  0  0  0  0  0
   -0.2047   12.2455   -7.9995 H   0  0  0  0  0  0  0  0  0  0  0  0
   -5.7887   11.0595  -10.8185 H   0  0  0  0  0  0  0  0  0  0  0  0
   -6.1737   12.3435   -9.8615 H   0  0  0  0  0  0  0  0  0  0  0  0
   -8.0667   11.1855  -11.0355 H   0  0  0  0  0  0  0  0  0  0  0  0
   -8.2617   11.5785   -9.4465 H   0  0  0  0  0  0  0  0  0  0  0  0
   -8.3087    9.8955   -7.7655 H   0  0  0  0  0  0  0  0  0  0  0  0
   -7.7877    8.3855   -8.1475 H   0  0  0  0  0  0  0  0  0  0  0  0
  -11.3127   10.1345  -10.2265 H   0  0  0  0  0  0  0  0  0  0  0  0
  -11.3237    8.9215   -9.1295 H   0  0  0  0  0  0  0  0  0  0  0  0
  -10.4347   10.2575   -8.8515 H   0  0  0  0  0  0  0  0  0  0  0  0
  1  2  1  0
  2  3  1  0
  2  7  1  0
  3  4  1  0
  4  5  1  0
  5  6  1  0
  5  8  1  0
  6  7  1  0
  8  9  1  0
  9 10  1  0
 10 11  1  0
 11 12  2  0
 11 16  1  0
 12 13  1  0
 13 14  2  0
 13 21  1  0
 14 15  1  0
 15 16  2  0
 16 17  1  0
 17 18  1  0
 17 19  1  0
 17 20  1  0
 21 22  1  0
 21 25  2  0
 22 23  2  0
 22 45  1  0
 23 24  1  0
 23 42  1  0
 24 25  1  0
 24 26  1  0
 26 27  1  0
 27 28  1  0
 27 41  1  0
 28 29  1  0
 29 30  1  0
 29 34  1  0
 30 31  1  0
 31 32  1  0
 32 33  1  0
 32 35  1  0
 33 34  1  0
 35 36  1  0
 36 37  2  0
 36 38  1  0
 38 39  1  0
 38 40  1  0
 42 43  1  0
 43 44  1  0
 44 45  1  0
 44 46  1  0
 46 47  2  0
 46 48  2  0
 46 49  1  0
  1 52  1  0
  1 53  1  0
  1 54  1  0
  2 55  1  0
  3 56  1  0
  3 57  1  0
  4 58  1  0
  4 59  1  0
  5 60  1  0
  6 61  1  0
  6 62  1  0
  7 63  1  0
  7 64  1  0
  8 65  1  0
  8 66  1  0
  9 67  1  0
  9 68  1  0
 12 69  1  0
 14 70  1  0
 15 71  1  0
 26 72  1  0
 26 73  1  0
 27 50  1  0
 28 74  1  0
 28 75  1  0
 29 76  1  0
 30 77  1  0
 30 78  1  0
 31 79  1  0
 31 80  1  0
 32 81  1  0
 33 82  1  0
 33 83  1  0
 34 84  1  0
 34 85  1  0
 35 86  1  0
 38 51  1  0
 39 87  1  0
 39 88  1  0
 39 89  1  0
 40 90  1  0
 41 91  1  0
 42 92  1  0
 42 93  1  0
 43 94  1  0
 43 95  1  0
 45 96  1  0
 45 97  1  0
 49 98  1  0
 49 99  1  0
 49100  1  0
M  CHG  2   5   1  29   1
M  END
>  <LF dG>
-13.225

>  <LF VSscore>
-15.189

>  <LF Rank Score>
-10.265

>  <LF LE>
-0.27

>  <Favorite_cresset>
false

>  <Protein_cresset>
haan-CatS_chainA-aligned_P

>  <MW_cresset>
732.9

>  <#Atoms_cresset>
49

>  <SlogP_cresset>
3.8

>  <TPSA_cresset>
133.6

>  <Flexibility_cresset>
15.4

>  <#RB_cresset>
15

>  <Rof5_cresset>
2

>  <Filename_cresset>
CatS_191.pdb

>  <Preferred Pose_cresset>
true

>  <_cresset_fieldpoints>
    -5      -6.870687       7.617499     -10.739526     -6.0985
    -5      -8.991687       6.834499     -12.157526     -6.1540
    -5      -0.957686       9.700499      -8.261526     -6.3455
    -5      -6.962687       2.038499      -3.234526     -1.0425
    -5      -2.358687       9.225499      -7.645526     -6.4215
    -5      -1.756687      16.899498      -0.668526     -6.5110
    -5      -0.368687      18.339499      -0.487526     -6.6640
    -5       2.842313      17.243500      -5.712526     -1.9795
    -6     -10.321687      11.839499       1.712474      8.1970
    -6       0.278313      16.161499      -6.936526      9.1760
    -6      -8.770687      10.787499      -5.614526      9.2355
    -6      -5.195687      14.182499      -8.193525     10.6325
    -6      -9.466686      11.929499      -7.432526      9.1885
    -6      -2.149687       4.904499      -5.282526      2.9615
    -6       0.984313      13.481499      -7.570526     10.3825
    -6       3.371313      17.402500      -1.859526      8.0845
    -7     -10.602686      14.083499       2.018474     -1.9470
    -7     -10.412687      12.570499       1.933474     -2.1140
    -7      -8.079687      12.343499      -4.440526     -2.9835
    -7     -12.888687      16.002499      -1.805526     -1.3725
    -7     -11.762687      10.372499       0.684474     -1.7780
    -7      -8.402687      11.015499       2.008474     -1.8540
    -7      -5.944687       8.929499      -0.002526     -2.3825
    -7      -2.187687       8.868499      -7.879526     -2.8310
    -7      -5.975687       2.997499      -0.247526     -1.1545
    -7      -4.496686       9.391499      -2.352526     -3.0090
    -7      -7.782687       6.098499      -6.869526     -3.0245
    -7      -0.356687      12.710499     -10.376526     -1.6940
    -7      -4.180686      13.183499     -11.695526     -1.6415
    -7       0.581313      16.050499      -7.077526     -2.5935
    -7       0.225313      10.909499      -6.140526     -1.8140
    -7      -4.229687      11.722499      -5.084526     -3.7925
    -7       1.325314      13.831499      -7.383526     -1.6570
    -7      -6.795687      11.777499      -4.605526     -3.2145
    -7      -2.196687      18.805500      -6.753526     -1.9340
    -7      -5.416687      13.441499      -7.071526     -3.5840
    -7      -2.596687      19.070499      -3.224526     -2.3080
    -7       1.530313      15.011499      -4.140526     -2.8700
    -7       3.831313      18.527500      -5.048526     -1.2435
    -7      -6.233686       8.109499     -11.051526     -2.7695
    -7      -6.871686      13.106499     -12.614526     -1.1625
    -7     -10.278687      11.426499     -12.347527     -1.8670
    -7      -9.280687      10.474499      -5.480526     -3.2495
    -7      -8.207686      11.395499      -5.494526     -3.3060
    -8      -9.628687      14.241499      -0.919526      6.1400
    -8      -9.474687      13.441499      -1.135526      6.0615
    -8      -8.347687       9.034499      -2.214526      5.5725
    -8      -5.616687       7.517499      -4.944526      7.2135
    -8      -6.916687       7.785499      -3.803526      5.7165
    -8      -5.821687       5.666499      -2.983526      6.2530
    -8      -6.742687      10.671499      -9.041526      5.3475
    -8      -2.786687      12.818499      -8.314526      4.7010
    -8      -6.487687       9.704499      -7.956526      4.9140
    -8      -2.338687      15.112499      -4.648526      5.5595
    -8       0.256313      18.778500      -3.960526      4.3460
    -8     -10.287687       9.496499      -9.721525      4.1395

$$$$
