CatS_30_D
  xed2sdf_05210316543D
 
 92 96  0  0  0  0  0  0  0  0999 V2000
   -2.3916   19.0241   -2.1225 C   0  0  0  0  0  0  0  0  0  0  0  0
   -1.5626   17.8921   -2.6775 C   0  0  0  0  0  0  0  0  0  0  0  0
   -0.4446   17.6251   -2.2595 O   0  0  0  0  0  0  0  0  0  0  0  0
   -2.2006   17.2371   -3.6595 N   0  0  0  0  0  0  0  0  0  0  0  0
   -1.5326   16.1191   -4.3385 C   0  0  0  0  0  0  0  0  0  0  0  0
   -1.7566   16.2411   -5.8555 C   0  0  0  0  0  0  0  0  0  0  0  0
   -0.9766   15.1331   -6.5895 C   0  0  0  0  0  0  0  0  0  0  0  0
   -1.3556   13.7531   -6.0975 N   0  3  0  0  0  0  0  0  0  0  0  0
   -1.2656   13.6291   -4.5945 C   0  0  0  0  0  0  0  0  0  0  0  0
   -2.0486   14.7451   -3.8715 C   0  0  0  0  0  0  0  0  0  0  0  0
   -2.7036   13.2901   -6.5935 C   0  0  0  0  0  0  0  0  0  0  0  0
   -2.7966   13.1201   -8.1245 C   0  0  0  0  0  0  0  0  0  0  0  0
   -2.8316   11.6291   -8.5195 C   0  0  0  0  0  0  0  0  0  0  0  0
   -3.9876   10.8671   -8.0265 N   0  0  0  0  0  0  0  0  0  0  0  0
   -5.2656   10.7961   -8.4795 C   0  0  0  0  0  0  0  0  0  0  0  0
   -6.0266    9.9741   -7.7545 C   0  0  0  0  0  0  0  0  0  0  0  0
   -5.1366    9.4771   -6.7735 C   0  0  0  0  0  0  0  0  0  0  0  0
   -3.9536   10.0201   -6.9745 N   0  0  0  0  0  0  0  0  0  0  0  0
   -5.3826    8.5101   -5.7195 C   0  0  0  0  0  0  0  0  0  0  0  0
   -4.3606    7.6661   -5.3275 C   0  0  0  0  0  0  0  0  0  0  0  0
   -4.5686    6.7181   -4.3545 C   0  0  0  0  0  0  0  0  0  0  0  0
   -5.7916    6.5881   -3.7275 C   0  0  0  0  0  0  0  0  0  0  0  0
   -6.8066    7.4601   -4.0965 C   0  0  0  0  0  0  0  0  0  0  0  0
   -6.6056    8.3961   -5.0835 C   0  0  0  0  0  0  0  0  0  0  0  0
   -8.4266    7.4161   -3.3115 S   0  0  0  0  0  0  0  0  0  0  0  0
   -9.0536    9.1061   -3.0845 C   0  0  0  0  0  0  0  0  0  0  0  0
   -8.0146    9.9981   -2.3755 C   0  0  0  0  0  0  0  0  0  0  0  0
   -8.5786   11.2941   -1.8485 N   0  3  0  0  0  0  0  0  0  0  0  0
   -7.5076   12.1251   -1.1835 C   0  0  0  0  0  0  0  0  0  0  0  0
   -8.0596   13.4841   -0.7055 C   0  0  0  0  0  0  0  0  0  0  0  0
   -9.2526   13.2591    0.2425 C   0  0  0  0  0  0  0  0  0  0  0  0
  -10.3496   12.4651   -0.4905 C   0  0  0  0  0  0  0  0  0  0  0  0
   -9.7916   11.1091   -0.9675 C   0  0  0  0  0  0  0  0  0  0  0  0
   -5.9126    5.4901   -2.6725 C   0  0  0  0  0  0  0  0  0  0  0  0
   -5.5186    5.9391   -1.4165 F   0  0  0  0  0  0  0  0  0  0  0  0
   -5.1056    4.4061   -2.9985 F   0  0  0  0  0  0  0  0  0  0  0  0
   -7.2096    5.0061   -2.5235 F   0  0  0  0  0  0  0  0  0  0  0  0
   -7.4866    9.6931   -8.0935 C   0  0  0  0  0  0  0  0  0  0  0  0
   -8.0856   10.6711   -9.0295 N   0  0  0  0  0  0  0  0  0  0  0  0
   -7.1546   10.8991  -10.1545 C   0  0  0  0  0  0  0  0  0  0  0  0
   -5.8236   11.5321   -9.6865 C   0  0  0  0  0  0  0  0  0  0  0  0
   -9.6606   10.4801   -9.3935 S   0  0  0  0  0  0  0  0  0  0  0  0
  -10.3556   10.2741   -8.1645 O   0  0  0  0  0  0  0  0  0  0  0  0
  -10.0376   11.5971  -10.1985 O   0  0  0  0  0  0  0  0  0  0  0  0
   -9.8246    8.9811  -10.4005 C   0  0  0  0  0  0  0  0  0  0  0  0
   -3.2656   19.0561   -2.6085 H   0  0  0  0  0  0  0  0  0  0  0  0
   -2.5546   18.8761   -1.1465 H   0  0  0  0  0  0  0  0  0  0  0  0
   -1.9056   19.8891   -2.2435 H   0  0  0  0  0  0  0  0  0  0  0  0
   -3.0096   17.4831   -3.9095 H   0  0  0  0  0  0  0  0  0  0  0  0
   -0.5616   16.1731   -4.1085 H   0  0  0  0  0  0  0  0  0  0  0  0
   -1.4406   17.1361   -6.1685 H   0  0  0  0  0  0  0  0  0  0  0  0
   -2.7326   16.1421   -6.0535 H   0  0  0  0  0  0  0  0  0  0  0  0
    0.0024   15.2731   -6.4425 H   0  0  0  0  0  0  0  0  0  0  0  0
   -1.2036   15.1861   -7.5625 H   0  0  0  0  0  0  0  0  0  0  0  0
   -0.7386   13.1771   -6.4395 H   0  0  0  0  0  0  0  0  0  0  0  0
   -0.3046   13.6781   -4.3225 H   0  0  0  0  0  0  0  0  0  0  0  0
   -1.6696   12.7531   -4.3335 H   0  0  0  0  0  0  0  0  0  0  0  0
   -3.0226   14.6631   -4.0835 H   0  0  0  0  0  0  0  0  0  0  0  0
   -1.9166   14.6571   -2.8845 H   0  0  0  0  0  0  0  0  0  0  0  0
   -3.3906   13.9591   -6.3085 H   0  0  0  0  0  0  0  0  0  0  0  0
   -2.8576   12.3851   -6.1975 H   0  0  0  0  0  0  0  0  0  0  0  0
   -2.0026   13.5541   -8.5515 H   0  0  0  0  0  0  0  0  0  0  0  0
   -3.6426   13.5491   -8.4395 H   0  0  0  0  0  0  0  0  0  0  0  0
   -2.0016   11.1961   -8.1655 H   0  0  0  0  0  0  0  0  0  0  0  0
   -2.8996   11.6121   -9.5165 H   0  0  0  0  0  0  0  0  0  0  0  0
   -3.4606    7.7451   -5.7565 H   0  0  0  0  0  0  0  0  0  0  0  0
   -3.8186    6.1101   -4.0955 H   0  0  0  0  0  0  0  0  0  0  0  0
   -7.3556    9.0031   -5.3465 H   0  0  0  0  0  0  0  0  0  0  0  0
   -9.8886    9.0751   -2.5365 H   0  0  0  0  0  0  0  0  0  0  0  0
   -9.2406    9.4971   -3.9865 H   0  0  0  0  0  0  0  0  0  0  0  0
   -7.2836   10.2101   -3.0245 H   0  0  0  0  0  0  0  0  0  0  0  0
   -7.6846    9.4841   -1.5835 H   0  0  0  0  0  0  0  0  0  0  0  0
   -8.8546   11.7701   -2.5755 H   0  0  0  0  0  0  0  0  0  0  0  0
   -6.7666   12.2851   -1.8355 H   0  0  0  0  0  0  0  0  0  0  0  0
   -7.1746   11.6251   -0.3835 H   0  0  0  0  0  0  0  0  0  0  0  0
   -8.3576   14.0191   -1.4965 H   0  0  0  0  0  0  0  0  0  0  0  0
   -7.3416   13.9791   -0.2175 H   0  0  0  0  0  0  0  0  0  0  0  0
   -9.6166   14.1421    0.5365 H   0  0  0  0  0  0  0  0  0  0  0  0
   -8.9486   12.7431    1.0435 H   0  0  0  0  0  0  0  0  0  0  0  0
  -10.6686   12.9911   -1.2795 H   0  0  0  0  0  0  0  0  0  0  0  0
  -11.1106   12.3031    0.1375 H   0  0  0  0  0  0  0  0  0  0  0  0
   -9.5376   10.5601   -0.1705 H   0  0  0  0  0  0  0  0  0  0  0  0
  -10.5016   10.6471   -1.4995 H   0  0  0  0  0  0  0  0  0  0  0  0
   -8.0156    9.7021   -7.2445 H   0  0  0  0  0  0  0  0  0  0  0  0
   -7.5116    8.8041   -8.5505 H   0  0  0  0  0  0  0  0  0  0  0  0
   -7.5896   11.5091  -10.8165 H   0  0  0  0  0  0  0  0  0  0  0  0
   -6.9456   10.0121  -10.5665 H   0  0  0  0  0  0  0  0  0  0  0  0
   -5.1586   11.4911  -10.4325 H   0  0  0  0  0  0  0  0  0  0  0  0
   -5.9966   12.4821   -9.4275 H   0  0  0  0  0  0  0  0  0  0  0  0
  -10.1446    9.2351  -11.3135 H   0  0  0  0  0  0  0  0  0  0  0  0
   -8.9396    8.5221  -10.4705 H   0  0  0  0  0  0  0  0  0  0  0  0
  -10.4806    8.3591   -9.9735 H   0  0  0  0  0  0  0  0  0  0  0  0
  1  2  1  0
  2  3  2  0
  2  4  1  0
  4  5  1  0
  5  6  1  0
  5 10  1  0
  6  7  1  0
  7  8  1  0
  8  9  1  0
  8 11  1  0
  9 10  1  0
 11 12  1  0
 12 13  1  0
 13 14  1  0
 14 15  1  0
 14 18  1  0
 15 16  2  0
 15 41  1  0
 16 17  1  0
 16 38  1  0
 17 18  2  0
 17 19  1  0
 19 20  2  0
 19 24  1  0
 20 21  1  0
 21 22  2  0
 22 23  1  0
 22 34  1  0
 23 24  2  0
 23 25  1  0
 25 26  1  0
 26 27  1  0
 27 28  1  0
 28 29  1  0
 28 33  1  0
 29 30  1  0
 30 31  1  0
 31 32  1  0
 32 33  1  0
 34 35  1  0
 34 36  1  0
 34 37  1  0
 38 39  1  0
 39 40  1  0
 39 42  1  0
 40 41  1  0
 42 43  2  0
 42 44  2  0
 42 45  1  0
  1 46  1  0
  1 47  1  0
  1 48  1  0
  4 49  1  0
  5 50  1  0
  6 51  1  0
  6 52  1  0
  7 53  1  0
  7 54  1  0
  8 55  1  0
  9 56  1  0
  9 57  1  0
 10 58  1  0
 10 59  1  0
 11 60  1  0
 11 61  1  0
 12 62  1  0
 12 63  1  0
 13 64  1  0
 13 65  1  0
 20 66  1  0
 21 67  1  0
 24 68  1  0
 26 69  1  0
 26 70  1  0
 27 71  1  0
 27 72  1  0
 28 73  1  0
 29 74  1  0
 29 75  1  0
 30 76  1  0
 30 77  1  0
 31 78  1  0
 31 79  1  0
 32 80  1  0
 32 81  1  0
 33 82  1  0
 33 83  1  0
 38 84  1  0
 38 85  1  0
 40 86  1  0
 40 87  1  0
 41 88  1  0
 41 89  1  0
 45 90  1  0
 45 91  1  0
 45 92  1  0
M  CHG  2   8   1  28   1
M  END
>  <LF dG>
-10.703

>  <LF VSscore>
-12.881

>  <LF Rank Score>
-10.04

>  <LF LE>
-0.238

>  <Favorite_cresset>
false

>  <Protein_cresset>
haan-CatS_chainA-aligned_P

>  <MW_cresset>
672.9

>  <#Atoms_cresset>
45

>  <SlogP_cresset>
4.5

>  <TPSA_cresset>
93.2

>  <Flexibility_cresset>
12.4

>  <#RB_cresset>
12

>  <Rof5_cresset>
1

>  <Filename_cresset>
CatS_30.pdb

>  <Preferred Pose_cresset>
true

>  <_cresset_fieldpoints>
    -5       0.554419      18.343084      -0.991453     -9.0850
    -5       0.978418      16.551085      -2.210453     -8.4220
    -5      -2.765581      10.247085      -5.393453     -2.1730
    -5      -4.651581       9.428084      -2.608453     -1.5085
    -5     -11.630581      12.216084      -8.728453     -4.0090
    -6       0.213418      12.314085      -8.065453     10.3450
    -6      -3.390581      16.012085      -8.697453      7.4665
    -6      -8.709581      11.975084      -4.619452      7.6010
    -6      -9.298581      13.166084      -3.939453      7.5545
    -6      -1.616581       6.161085      -4.978453      4.4610
    -6      -7.918581      10.571085       1.805548      2.9815
    -6      -4.805582      18.082085      -4.463452      9.6095
    -6      -6.327581      12.872085       1.902547      3.0315
    -6      -5.373581      10.537085     -12.563453      7.6520
    -6      -3.679581      13.254085     -11.033453      9.5425
    -6      -7.572581       8.826084     -12.436453      7.7100
    -7       0.144419      18.862085      -4.831452     -1.9770
    -7      -2.008581      19.519085      -5.295453     -2.0700
    -7      -4.160582      16.222084      -1.945452     -2.2590
    -7      -5.057581      15.679085      -5.178452     -2.2220
    -7       1.771419      15.227085      -4.538453     -1.8995
    -7       0.434419      15.420084      -1.796453     -2.0025
    -7       1.788419      13.413085      -5.905453     -1.6255
    -7       0.475419      12.812084      -8.576452     -2.0340
    -7      -4.890582       9.440084      -2.144453     -3.5320
    -7      -7.791581      11.513084      -5.238452     -3.9140
    -7      -3.833581      13.664084     -11.148453     -1.9080
    -7      -3.646581      16.196085      -8.518453     -2.0870
    -7      -2.420581       8.444084      -8.123452     -2.5460
    -7      -2.017581      10.135085      -5.597453     -3.3790
    -7      -7.330582       6.369085      -7.474452     -2.8550
    -7      -2.307581       6.141085      -2.048453     -1.6600
    -7     -10.907581      11.673084      -3.975452     -2.3225
    -7      -8.656582       8.007085       0.226548     -2.4260
    -7      -7.544581       9.370085       0.922547     -2.2145
    -7      -7.849582      10.349085       1.692547     -2.0615
    -7      -6.568582      12.290085       2.079547     -1.5565
    -7      -7.947581       7.726085       0.175548     -2.4240
    -7      -9.969582      10.736085       2.397548     -1.5695
    -7      -9.846581      13.731085      -3.635453     -2.0445
    -7     -10.481581      15.594085      -1.806453     -1.5270
    -7      -6.142581       2.894085      -0.179452     -1.1540
    -7      -8.051581      12.792085      -7.450453     -2.7890
    -7      -9.489581      11.522085     -12.563453     -1.8615
    -7      -9.982582       8.461084      -6.450453     -3.2705
    -7      -5.761581       7.724085     -10.180452     -2.4245
    -8      -1.557581      15.245085      -4.992453      5.8040
    -8      -2.334581      18.885084      -2.220453      3.5110
    -8      -5.591581       7.555085      -4.712452      7.2250
    -8      -2.701581      12.712085      -7.739452      5.0455
    -8      -6.247581      10.548084      -9.023453      5.4095
    -8      -7.841581       8.375085      -3.697453      5.9060
    -8      -5.871582       5.643085      -2.822453      6.2550
    -8      -6.231582       9.819085      -7.757452      4.9535
    -8      -6.163581       9.015085      -6.269453      5.2300
    -8      -9.061582      12.678084      -0.501452      6.0110
    -8      -9.613582       9.382085     -10.101452      4.1690

$$$$
