CatS_165_D
  xed2sdf_05210316543D
 
102106  0  0  1  0  0  0  0  0999 V2000
  -12.4473   11.2677  -10.1483 C   0  0  0  0  0  0  0  0  0  0  0  0
  -11.6283   10.0607  -10.6433 C   0  0  0  0  0  0  0  0  0  0  0  0
  -12.3813    8.7777  -10.2483 C   0  0  0  0  0  0  0  0  0  0  0  0
  -10.1853   10.2067  -10.3443 N   0  0  0  0  0  0  0  0  0  0  0  0
   -9.1533   10.2387  -11.4113 C   0  0  0  0  0  0  0  0  0  0  0  0
   -8.4413    8.8857  -11.5983 C   0  0  0  0  0  0  0  0  0  0  0  0
   -9.5243   10.7827  -12.8103 C   0  0  0  0  0  0  0  0  0  0  0  0
   -9.8273   10.1407   -9.0313 C   0  0  0  0  0  0  0  0  0  0  0  0
  -10.5673    9.5597   -8.2263 O   0  0  0  0  0  0  0  0  0  0  0  0
   -8.6683   10.6877   -8.5793 N   0  0  0  0  0  0  0  0  0  0  0  0
   -8.1093   11.9677   -9.0703 C   0  0  0  0  0  0  0  0  0  0  0  0
   -6.5853   11.9187   -9.3473 C   0  0  0  0  0  0  0  0  0  0  0  0
   -5.8623   10.9637   -8.4103 C   0  0  0  0  0  0  0  0  0  0  0  0
   -6.4933   10.1647   -7.5443 C   0  0  0  0  0  0  0  0  0  0  0  0
   -5.4403    9.4717   -6.9043 C   0  0  0  0  0  0  0  0  0  0  0  0
   -4.2993    9.8717   -7.4243 N   0  0  0  0  0  0  0  0  0  0  0  0
   -4.5143   10.8147   -8.3673 N   0  0  0  0  0  0  0  0  0  0  0  0
   -3.4603   11.5037   -9.1223 C   0  0  0  0  0  0  0  0  0  0  0  0
   -2.2823   11.9157   -8.2163 C   0  0  0  0  0  0  0  0  0  0  0  0
   -2.7503   12.9027   -7.1243 C   0  0  0  0  0  0  0  0  0  0  0  0
   -1.6333   13.6527   -6.4363 N   0  3  0  0  0  0  0  0  0  0  0  0
   -1.6723   13.5507   -4.9283 C   0  0  0  0  0  0  0  0  0  0  0  0
   -2.2753   14.8127   -4.2663 C   0  0  0  0  0  0  0  0  0  0  0  0
   -3.2843   15.4977   -5.2083 C   0  0  0  0  0  0  0  0  0  0  0  0
   -2.5873   15.9917   -6.4963 C   0  0  0  0  0  0  0  0  0  0  0  0
   -1.4293   15.0617   -6.9353 C   0  0  0  0  0  0  0  0  0  0  0  0
   -1.2283   12.4747   -9.0133 O   0  0  0  0  0  0  0  0  0  0  0  0
   -5.5203    8.4807   -5.8453 C   0  0  0  0  0  0  0  0  0  0  0  0
   -4.5363    7.5177   -5.7203 C   0  0  0  0  0  0  0  0  0  0  0  0
   -4.5993    6.5787   -4.7183 C   0  0  0  0  0  0  0  0  0  0  0  0
   -5.6303    6.5727   -3.8003 C   0  0  0  0  0  0  0  0  0  0  0  0
   -6.6073    7.5517   -3.9213 C   0  0  0  0  0  0  0  0  0  0  0  0
   -6.5583    8.4827   -4.9323 C   0  0  0  0  0  0  0  0  0  0  0  0
   -7.9703    7.6887   -2.7583 S   0  0  0  0  0  0  0  0  0  0  0  0
   -8.6013    9.3677   -3.0253 C   0  0  0  0  0  0  0  0  0  0  0  0
   -7.7563   10.3707   -2.2153 C   0  0  0  0  0  0  0  0  0  0  0  0
   -8.4853   11.6237   -1.7893 N   0  3  0  0  0  0  0  0  0  0  0  0
   -7.6853   12.5207   -0.8763 C   0  0  0  0  0  0  0  0  0  0  0  0
   -8.4063   13.8707   -0.6903 C   0  0  0  0  0  0  0  0  0  0  0  0
   -9.8253   13.6307   -0.1353 C   0  0  0  0  0  0  0  0  0  0  0  0
  -10.6253   12.7197   -1.0883 C   0  0  0  0  0  0  0  0  0  0  0  0
   -9.8863   11.3797   -1.2833 C   0  0  0  0  0  0  0  0  0  0  0  0
  -10.4793   14.8497   -0.0053 F   0  0  0  0  0  0  0  0  0  0  0  0
   -5.6063    5.4897   -2.7233 C   0  0  0  0  0  0  0  0  0  0  0  0
   -4.8523    4.3947   -3.1313 F   0  0  0  0  0  0  0  0  0  0  0  0
   -6.8683    5.0057   -2.3893 F   0  0  0  0  0  0  0  0  0  0  0  0
   -5.0403    5.9707   -1.5473 F   0  0  0  0  0  0  0  0  0  0  0  0
   -8.0073   10.1097   -7.3903 C   0  0  0  0  0  0  0  0  0  0  0  0
   -1.9283   11.1037   -7.7523 H   0  0  0  0  0  0  0  0  0  0  0  0
  -12.5073   11.9437  -10.8823 H   0  0  0  0  0  0  0  0  0  0  0  0
  -13.3653   10.9687   -9.8893 H   0  0  0  0  0  0  0  0  0  0  0  0
  -12.0003   11.6727   -9.3503 H   0  0  0  0  0  0  0  0  0  0  0  0
  -11.5693    9.9987  -11.6393 H   0  0  0  0  0  0  0  0  0  0  0  0
  -11.7433    8.1507   -9.8003 H   0  0  0  0  0  0  0  0  0  0  0  0
  -13.1273    9.0037   -9.6213 H   0  0  0  0  0  0  0  0  0  0  0  0
  -12.7623    8.3467  -11.0653 H   0  0  0  0  0  0  0  0  0  0  0  0
   -8.5533   10.9367  -11.0203 H   0  0  0  0  0  0  0  0  0  0  0  0
   -8.3873    8.6777  -12.5753 H   0  0  0  0  0  0  0  0  0  0  0  0
   -7.5203    8.9317  -11.2123 H   0  0  0  0  0  0  0  0  0  0  0  0
   -8.9553    8.1667  -11.1283 H   0  0  0  0  0  0  0  0  0  0  0  0
   -9.2173   10.1307  -13.5043 H   0  0  0  0  0  0  0  0  0  0  0  0
  -10.5153   10.9007  -12.8753 H   0  0  0  0  0  0  0  0  0  0  0  0
   -9.0813   11.6667  -12.9573 H   0  0  0  0  0  0  0  0  0  0  0  0
   -8.2843   12.6737   -8.3843 H   0  0  0  0  0  0  0  0  0  0  0  0
   -8.5563   12.1637   -9.9433 H   0  0  0  0  0  0  0  0  0  0  0  0
   -6.2063   12.8367   -9.2323 H   0  0  0  0  0  0  0  0  0  0  0  0
   -6.4543   11.5887  -10.2823 H   0  0  0  0  0  0  0  0  0  0  0  0
   -3.8463   12.3217   -9.5473 H   0  0  0  0  0  0  0  0  0  0  0  0
   -3.1113   10.8727   -9.8153 H   0  0  0  0  0  0  0  0  0  0  0  0
   -3.2563   12.3877   -6.4333 H   0  0  0  0  0  0  0  0  0  0  0  0
   -3.3113   13.5907   -7.5853 H   0  0  0  0  0  0  0  0  0  0  0  0
   -0.8723   13.2147   -6.6823 H   0  0  0  0  0  0  0  0  0  0  0  0
   -0.7403   13.4227   -4.5893 H   0  0  0  0  0  0  0  0  0  0  0  0
   -2.2563   12.7757   -4.6903 H   0  0  0  0  0  0  0  0  0  0  0  0
   -1.5393   15.4537   -4.0483 H   0  0  0  0  0  0  0  0  0  0  0  0
   -2.7543   14.5387   -3.4323 H   0  0  0  0  0  0  0  0  0  0  0  0
   -3.6973   16.2767   -4.7373 H   0  0  0  0  0  0  0  0  0  0  0  0
   -3.9863   14.8327   -5.4613 H   0  0  0  0  0  0  0  0  0  0  0  0
   -2.2223   16.9087   -6.3343 H   0  0  0  0  0  0  0  0  0  0  0  0
   -3.2683   15.9957   -7.2293 H   0  0  0  0  0  0  0  0  0  0  0  0
   -1.3783   15.0507   -7.9343 H   0  0  0  0  0  0  0  0  0  0  0  0
   -0.5793   15.4137   -6.5423 H   0  0  0  0  0  0  0  0  0  0  0  0
   -0.7143   11.7567   -9.4963 H   0  0  0  0  0  0  0  0  0  0  0  0
   -3.7723    7.5037   -6.3653 H   0  0  0  0  0  0  0  0  0  0  0  0
   -3.8823    5.8847   -4.6523 H   0  0  0  0  0  0  0  0  0  0  0  0
   -7.2823    9.1687   -5.0093 H   0  0  0  0  0  0  0  0  0  0  0  0
   -9.5553    9.4167   -2.7303 H   0  0  0  0  0  0  0  0  0  0  0  0
   -8.5433    9.5937   -3.9973 H   0  0  0  0  0  0  0  0  0  0  0  0
   -6.9723   10.6397   -2.7743 H   0  0  0  0  0  0  0  0  0  0  0  0
   -7.4963    9.9007   -1.3723 H   0  0  0  0  0  0  0  0  0  0  0  0
   -8.5893   12.1037   -2.5593 H   0  0  0  0  0  0  0  0  0  0  0  0
   -6.7813   12.6777   -1.2743 H   0  0  0  0  0  0  0  0  0  0  0  0
   -7.5893   12.0767    0.0147 H   0  0  0  0  0  0  0  0  0  0  0  0
   -8.4673   14.3407   -1.5713 H   0  0  0  0  0  0  0  0  0  0  0  0
   -7.8913   14.4347   -0.0453 H   0  0  0  0  0  0  0  0  0  0  0  0
   -9.7543   13.1837    0.7567 H   0  0  0  0  0  0  0  0  0  0  0  0
  -10.7313   13.1747   -1.9723 H   0  0  0  0  0  0  0  0  0  0  0  0
  -11.5263   12.5417   -0.6923 H   0  0  0  0  0  0  0  0  0  0  0  0
   -9.8433   10.8937   -0.4103 H   0  0  0  0  0  0  0  0  0  0  0  0
  -10.3833   10.8287   -1.9543 H   0  0  0  0  0  0  0  0  0  0  0  0
   -8.2953    9.1577   -7.2823 H   0  0  0  0  0  0  0  0  0  0  0  0
   -8.2693   10.6387   -6.5843 H   0  0  0  0  0  0  0  0  0  0  0  0
  1  2  1  0
  2  3  1  0
  2  4  1  0
  4  5  1  0
  4  8  1  0
  5  6  1  0
  5  7  1  0
  8  9  2  0
  8 10  1  0
 10 11  1  0
 10 48  1  0
 11 12  1  0
 12 13  1  0
 13 14  2  0
 13 17  1  0
 14 15  1  0
 14 48  1  0
 15 16  2  0
 15 28  1  0
 16 17  1  0
 17 18  1  0
 18 19  1  0
 19 20  1  0
 19 27  1  0
 20 21  1  0
 21 22  1  0
 21 26  1  0
 22 23  1  0
 23 24  1  0
 24 25  1  0
 25 26  1  0
 28 29  2  0
 28 33  1  0
 29 30  1  0
 30 31  2  0
 31 32  1  0
 31 44  1  0
 32 33  2  0
 32 34  1  0
 34 35  1  0
 35 36  1  0
 36 37  1  0
 37 38  1  0
 37 42  1  0
 38 39  1  0
 39 40  1  0
 40 41  1  0
 40 43  1  0
 41 42  1  0
 44 45  1  0
 44 46  1  0
 44 47  1  0
  1 50  1  0
  1 51  1  0
  1 52  1  0
  2 53  1  0
  3 54  1  0
  3 55  1  0
  3 56  1  0
  5 57  1  0
  6 58  1  0
  6 59  1  0
  6 60  1  0
  7 61  1  0
  7 62  1  0
  7 63  1  0
 11 64  1  0
 11 65  1  0
 12 66  1  0
 12 67  1  0
 18 68  1  0
 18 69  1  0
 19 49  1  0
 20 70  1  0
 20 71  1  0
 21 72  1  0
 22 73  1  0
 22 74  1  0
 23 75  1  0
 23 76  1  0
 24 77  1  0
 24 78  1  0
 25 79  1  0
 25 80  1  0
 26 81  1  0
 26 82  1  0
 27 83  1  0
 29 84  1  0
 30 85  1  0
 33 86  1  0
 35 87  1  0
 35 88  1  0
 36 89  1  0
 36 90  1  0
 37 91  1  0
 38 92  1  0
 38 93  1  0
 39 94  1  0
 39 95  1  0
 40 96  1  0
 41 97  1  0
 41 98  1  0
 42 99  1  0
 42100  1  0
 48101  1  0
 48102  1  0
M  CHG  2  21   1  37   1
M  END
>  <LF dG>
-11.39

>  <LF VSscore>
-13.942

>  <LF Rank Score>
-9.728

>  <LF LE>
-0.237

>  <Favorite_cresset>
false

>  <Protein_cresset>
haan-CatS_chainA-aligned_P

>  <MW_cresset>
698.9

>  <#Atoms_cresset>
48

>  <SlogP_cresset>
6.9

>  <TPSA_cresset>
70.5

>  <Flexibility_cresset>
13.9

>  <#RB_cresset>
15

>  <Rof5_cresset>
2

>  <Filename_cresset>
CatS_165.pdb

>  <Preferred Pose_cresset>
true

>  <_cresset_fieldpoints>
    -5     -11.701277       8.557707      -7.260268     -8.9755
    -5      -4.570276       8.229707      -9.278269     -1.1390
    -5      -1.207276      14.076707      -9.945269     -1.5320
    -5      -7.547276       5.932707      -6.567268     -2.6320
    -5      -7.482276       5.765707       0.389732     -1.2450
    -5      -6.936276       2.064707      -2.877268     -1.1315
    -6      -7.229276      13.051707     -11.954268      9.3100
    -6     -12.765276      11.295707     -13.451268      4.7630
    -6      -4.840276      12.579707     -11.641268      9.4650
    -6      -0.743276      10.131707     -10.076268     11.7475
    -6      -1.817276       6.074707      -6.112268      4.6620
    -6     -11.872276       9.078707      -1.689268      3.4600
    -6      -8.158277      12.157707      -4.635268     10.4525
    -6      -8.923277      11.256707       1.887732      4.4895
    -7     -10.054276       8.239707      -5.764268     -2.9405
    -7     -10.736277      11.910707      -6.977268     -2.5920
    -7     -10.312277      13.444707     -11.159268     -2.6260
    -7     -11.091276       7.914707     -13.214268     -2.4100
    -7     -12.484276      10.129707      -7.105268     -2.1005
    -7      -7.387276       7.296707      -8.902268     -2.9865
    -7      -6.154276      10.969707     -12.664268     -2.3585
    -7      -7.363276      13.338707     -12.101269     -2.1040
    -7     -13.094276      10.930707     -13.470268     -1.7260
    -7      -9.385277       7.329707      -8.720268     -2.9420
    -7      -9.669276      11.845707      -4.771268     -3.1020
    -7      -9.301276      13.870707      -4.047268     -2.2240
    -7      -6.789276      12.037707      -4.849268     -3.9205
    -7      -5.223276      11.985707      -4.757268     -3.9565
    -7      -2.637276       8.489707      -8.385268     -2.7880
    -7      -2.591276      10.185707      -5.284268     -3.3700
    -7       0.866724      13.362707      -8.488268     -1.9800
    -7       1.046724      15.480707      -4.574268     -1.7265
    -7       1.500724      13.908707      -5.905268     -1.6245
    -7      -0.028276      17.369707      -4.827269     -1.7760
    -7      -4.439276      10.428707      -3.348268     -3.1700
    -7      -4.544276       9.506707      -2.351268     -3.2980
    -7      -4.620276      14.861708      -9.202269     -2.7055
    -7      -5.020276       8.676707     -10.409268     -2.6495
    -7      -2.018276       6.373707      -2.762268     -1.7160
    -7      -7.832276       6.595707      -7.291268     -2.7950
    -7      -8.164276       9.615707       1.023732     -2.2470
    -7      -8.500277       9.050707       0.752732     -2.2260
    -7      -7.791276      13.084707       2.489731     -1.6625
    -7      -8.894277      11.027707       1.949732     -2.0440
    -7      -8.296276      17.053707      -1.263268     -1.1610
    -7     -11.145276      11.268707       1.873732     -1.6820
    -7     -13.093277      14.564707      -2.069268     -1.1565
    -7      -5.474277       2.968707      -0.145268     -1.1540
    -8     -12.510277      10.013707     -10.355268      5.2735
    -8      -8.868277       9.908707     -12.220268      5.3500
    -8      -6.424276       9.181707      -6.224268      5.3420
    -8      -5.578276       7.531707      -4.819268      7.2245
    -8      -6.927276      11.277707      -8.427268      5.2140
    -8      -5.592277       5.640707      -2.879268      6.2500
    -8      -3.142276      12.334707      -8.054268      4.3935
    -8      -2.335276      15.284707      -5.501268      5.9615
    -8      -7.522276       8.470707      -3.629268      6.2510
    -8      -9.655276      13.490707      -0.672268      6.0665

$$$$
