CatS_155_D
  xed2sdf_05210316543D
 
 93 97  0  0  1  0  0  0  0  0999 V2000
    0.5815   18.3815   -3.3286 C   0  0  0  0  0  0  0  0  0  0  0  0
   -0.7335   17.6465   -3.2326 C   0  0  0  0  0  0  0  0  0  0  0  0
   -1.4555   17.7245   -2.2476 O   0  0  0  0  0  0  0  0  0  0  0  0
   -0.9965   16.9285   -4.3356 N   0  0  0  0  0  0  0  0  0  0  0  0
   -2.2405   16.1535   -4.4256 C   0  0  0  0  0  0  0  0  0  0  0  0
   -2.0545   14.7515   -3.8166 C   0  0  0  0  0  0  0  0  0  0  0  0
   -0.9935   13.9775   -4.6296 C   0  0  0  0  0  0  0  0  0  0  0  0
   -1.3335   13.8975   -6.1046 N   0  3  0  0  0  0  0  0  0  0  0  0
   -1.6215   15.2615   -6.6906 C   0  0  0  0  0  0  0  0  0  0  0  0
   -2.7005   16.0215   -5.8896 C   0  0  0  0  0  0  0  0  0  0  0  0
   -2.3665   12.8575   -6.4856 C   0  0  0  0  0  0  0  0  0  0  0  0
   -3.0365   13.0145   -7.8726 C   0  0  0  0  0  0  0  0  0  0  0  0
   -3.3165   11.6725   -8.5836 C   0  0  0  0  0  0  0  0  0  0  0  0
   -4.4205   10.8785   -8.0246 N   0  0  0  0  0  0  0  0  0  0  0  0
   -5.7055   10.7215   -8.4376 C   0  0  0  0  0  0  0  0  0  0  0  0
   -6.4085    9.9065   -7.6486 C   0  0  0  0  0  0  0  0  0  0  0  0
   -5.4665    9.4945   -6.6766 C   0  0  0  0  0  0  0  0  0  0  0  0
   -4.3175   10.0825   -6.9366 N   0  0  0  0  0  0  0  0  0  0  0  0
   -5.6345    8.5565   -5.5796 C   0  0  0  0  0  0  0  0  0  0  0  0
   -4.5525    7.8035   -5.1656 C   0  0  0  0  0  0  0  0  0  0  0  0
   -4.6855    6.8845   -4.1526 C   0  0  0  0  0  0  0  0  0  0  0  0
   -5.8895    6.6965   -3.5046 C   0  0  0  0  0  0  0  0  0  0  0  0
   -6.9665    7.4805   -3.8956 C   0  0  0  0  0  0  0  0  0  0  0  0
   -6.8405    8.3815   -4.9266 C   0  0  0  0  0  0  0  0  0  0  0  0
   -8.5665    7.3735   -3.0766 S   0  0  0  0  0  0  0  0  0  0  0  0
   -9.2595    9.0515   -3.0376 C   0  0  0  0  0  0  0  0  0  0  0  0
   -8.6835    9.8695   -1.8676 C   0  0  0  0  0  0  0  0  0  0  0  0
   -8.1385   11.2065   -2.3086 N   0  3  0  0  0  0  0  0  0  0  0  0
   -7.3025   11.8935   -1.2476 C   0  0  0  0  0  0  0  0  0  0  0  0
   -8.0935   12.9505   -0.4416 C   0  0  0  0  0  0  0  0  0  0  0  0
   -9.5785   12.5585   -0.3706 C   0  0  0  0  0  0  0  0  0  0  0  0
  -10.1975   12.5975   -1.7866 C   0  0  0  0  0  0  0  0  0  0  0  0
   -9.2155   12.0965   -2.8766 C   0  0  0  0  0  0  0  0  0  0  0  0
  -11.3475   11.8135   -1.8096 F   0  0  0  0  0  0  0  0  0  0  0  0
  -10.6005   13.8975   -2.0726 F   0  0  0  0  0  0  0  0  0  0  0  0
   -5.9245    5.6365   -2.4046 C   0  0  0  0  0  0  0  0  0  0  0  0
   -5.6205    6.1825   -1.1626 F   0  0  0  0  0  0  0  0  0  0  0  0
   -4.9965    4.6335   -2.6576 F   0  0  0  0  0  0  0  0  0  0  0  0
   -7.1665    5.0215   -2.2686 F   0  0  0  0  0  0  0  0  0  0  0  0
   -7.8655    9.5485   -7.9226 C   0  0  0  0  0  0  0  0  0  0  0  0
   -8.5155   10.3275   -9.0036 N   0  0  0  0  0  0  0  0  0  0  0  0
   -7.5565   10.5185  -10.1126 C   0  0  0  0  0  0  0  0  0  0  0  0
   -6.3305   11.3495   -9.6696 C   0  0  0  0  0  0  0  0  0  0  0  0
  -10.0105    9.8495   -9.4336 S   0  0  0  0  0  0  0  0  0  0  0  0
  -10.5205   10.7955  -10.3726 O   0  0  0  0  0  0  0  0  0  0  0  0
  -10.7565    9.6385   -8.2346 O   0  0  0  0  0  0  0  0  0  0  0  0
   -9.8345    8.2475  -10.2636 C   0  0  0  0  0  0  0  0  0  0  0  0
   -4.2735   13.7225   -7.7066 O   0  0  0  0  0  0  0  0  0  0  0  0
   -2.3945   13.5165   -8.4516 H   0  0  0  0  0  0  0  0  0  0  0  0
    1.0015   18.1815   -4.2136 H   0  0  0  0  0  0  0  0  0  0  0  0
    0.4255   19.3665   -3.2446 H   0  0  0  0  0  0  0  0  0  0  0  0
    1.1875   18.0845   -2.5916 H   0  0  0  0  0  0  0  0  0  0  0  0
   -0.4265   16.9135   -5.0076 H   0  0  0  0  0  0  0  0  0  0  0  0
   -2.9415   16.6445   -3.9086 H   0  0  0  0  0  0  0  0  0  0  0  0
   -2.9235   14.2565   -3.8406 H   0  0  0  0  0  0  0  0  0  0  0  0
   -1.7515   14.8355   -2.8666 H   0  0  0  0  0  0  0  0  0  0  0  0
   -0.9215   13.0495   -4.2646 H   0  0  0  0  0  0  0  0  0  0  0  0
   -0.1295   14.4735   -4.5466 H   0  0  0  0  0  0  0  0  0  0  0  0
   -0.5725   13.6245   -6.5196 H   0  0  0  0  0  0  0  0  0  0  0  0
   -1.9355   15.1495   -7.6336 H   0  0  0  0  0  0  0  0  0  0  0  0
   -0.7775   15.7975   -6.6526 H   0  0  0  0  0  0  0  0  0  0  0  0
   -2.8355   16.9315   -6.2836 H   0  0  0  0  0  0  0  0  0  0  0  0
   -3.5645   15.5195   -5.9286 H   0  0  0  0  0  0  0  0  0  0  0  0
   -3.0885   12.8795   -5.7936 H   0  0  0  0  0  0  0  0  0  0  0  0
   -1.8635   11.9945   -6.5356 H   0  0  0  0  0  0  0  0  0  0  0  0
   -2.4835   11.1195   -8.5416 H   0  0  0  0  0  0  0  0  0  0  0  0
   -3.5935   11.9075   -9.5156 H   0  0  0  0  0  0  0  0  0  0  0  0
   -3.6635    7.9285   -5.6066 H   0  0  0  0  0  0  0  0  0  0  0  0
   -3.8925    6.3405   -3.8786 H   0  0  0  0  0  0  0  0  0  0  0  0
   -7.6355    8.9195   -5.2096 H   0  0  0  0  0  0  0  0  0  0  0  0
  -10.2525    8.9925   -2.9396 H   0  0  0  0  0  0  0  0  0  0  0  0
   -9.0165    9.5115   -3.8916 H   0  0  0  0  0  0  0  0  0  0  0  0
   -7.9475    9.3455   -1.4386 H   0  0  0  0  0  0  0  0  0  0  0  0
   -9.4295   10.0455   -1.2246 H   0  0  0  0  0  0  0  0  0  0  0  0
   -7.5805   11.0345   -3.0096 H   0  0  0  0  0  0  0  0  0  0  0  0
   -6.5285   12.3435   -1.6926 H   0  0  0  0  0  0  0  0  0  0  0  0
   -7.0055   11.1905   -0.6026 H   0  0  0  0  0  0  0  0  0  0  0  0
   -8.0045   13.8415   -0.8856 H   0  0  0  0  0  0  0  0  0  0  0  0
   -7.7235   12.9975    0.4864 H   0  0  0  0  0  0  0  0  0  0  0  0
  -10.0645   13.1985    0.2244 H   0  0  0  0  0  0  0  0  0  0  0  0
   -9.6595   11.6325   -0.0016 H   0  0  0  0  0  0  0  0  0  0  0  0
   -9.7285   11.5835   -3.5646 H   0  0  0  0  0  0  0  0  0  0  0  0
   -8.7705   12.8965   -3.2776 H   0  0  0  0  0  0  0  0  0  0  0  0
   -8.3845    9.6915   -7.0796 H   0  0  0  0  0  0  0  0  0  0  0  0
   -7.8635    8.5965   -8.2316 H   0  0  0  0  0  0  0  0  0  0  0  0
   -8.0175   10.9905  -10.8636 H   0  0  0  0  0  0  0  0  0  0  0  0
   -7.2335    9.6175  -10.4036 H   0  0  0  0  0  0  0  0  0  0  0  0
   -5.6585   11.3745  -10.4096 H   0  0  0  0  0  0  0  0  0  0  0  0
   -6.6235   12.2805   -9.4546 H   0  0  0  0  0  0  0  0  0  0  0  0
  -10.2925    7.5455   -9.7176 H   0  0  0  0  0  0  0  0  0  0  0  0
  -10.2485    8.2905  -11.1726 H   0  0  0  0  0  0  0  0  0  0  0  0
   -8.8645    8.0225  -10.3586 H   0  0  0  0  0  0  0  0  0  0  0  0
   -4.4525   13.9225   -6.7376 H   0  0  0  0  0  0  0  0  0  0  0  0
  1  2  1  0
  2  3  2  0
  2  4  1  0
  4  5  1  0
  5  6  1  0
  5 10  1  0
  6  7  1  0
  7  8  1  0
  8  9  1  0
  8 11  1  0
  9 10  1  0
 11 12  1  0
 12 13  1  0
 12 48  1  0
 13 14  1  0
 14 15  1  0
 14 18  1  0
 15 16  2  0
 15 43  1  0
 16 17  1  0
 16 40  1  0
 17 18  2  0
 17 19  1  0
 19 20  2  0
 19 24  1  0
 20 21  1  0
 21 22  2  0
 22 23  1  0
 22 36  1  0
 23 24  2  0
 23 25  1  0
 25 26  1  0
 26 27  1  0
 27 28  1  0
 28 29  1  0
 28 33  1  0
 29 30  1  0
 30 31  1  0
 31 32  1  0
 32 33  1  0
 32 34  1  0
 32 35  1  0
 36 37  1  0
 36 38  1  0
 36 39  1  0
 40 41  1  0
 41 42  1  0
 41 44  1  0
 42 43  1  0
 44 45  2  0
 44 46  2  0
 44 47  1  0
  1 50  1  0
  1 51  1  0
  1 52  1  0
  4 53  1  0
  5 54  1  0
  6 55  1  0
  6 56  1  0
  7 57  1  0
  7 58  1  0
  8 59  1  0
  9 60  1  0
  9 61  1  0
 10 62  1  0
 10 63  1  0
 11 64  1  0
 11 65  1  0
 12 49  1  0
 13 66  1  0
 13 67  1  0
 20 68  1  0
 21 69  1  0
 24 70  1  0
 26 71  1  0
 26 72  1  0
 27 73  1  0
 27 74  1  0
 28 75  1  0
 29 76  1  0
 29 77  1  0
 30 78  1  0
 30 79  1  0
 31 80  1  0
 31 81  1  0
 33 82  1  0
 33 83  1  0
 40 84  1  0
 40 85  1  0
 42 86  1  0
 42 87  1  0
 43 88  1  0
 43 89  1  0
 47 90  1  0
 47 91  1  0
 47 92  1  0
 48 93  1  0
M  CHG  2   8   1  28   1
M  END
>  <LF dG>
-12.354

>  <LF VSscore>
-14.16

>  <LF Rank Score>
-10.751

>  <LF LE>
-0.257

>  <Favorite_cresset>
false

>  <Protein_cresset>
haan-CatS_chainA-aligned_P

>  <MW_cresset>
724.8

>  <#Atoms_cresset>
48

>  <SlogP_cresset>
4.1

>  <TPSA_cresset>
113.4

>  <Flexibility_cresset>
13.4

>  <#RB_cresset>
13

>  <Rof5_cresset>
1

>  <Filename_cresset>
CatS_155.pdb

>  <Preferred Pose_cresset>
true

>  <_cresset_fieldpoints>
    -5      -1.316475      18.629549      -0.735568     -8.3970
    -5      -2.961475      17.303549      -1.395568     -7.5635
    -5     -13.508474      13.688549      -2.530568     -2.1240
    -5     -12.218475      11.357549      -8.968568     -5.2700
    -5      -5.352475      14.514548      -8.940568     -2.8435
    -6       1.289525      16.530548      -6.040568     11.9700
    -6      -3.626475      11.131549     -11.632568      7.8970
    -6      -5.044475      13.917548      -5.043568     10.9465
    -6      -6.379475      12.097548      -4.335567      9.1020
    -6      -1.633475       6.863548      -4.734568      5.6460
    -6      -7.733475      11.225549      -5.085568      9.2765
    -6      -8.188475      10.078548       1.244432      4.6780
    -6       0.106525      12.831549      -8.298568     12.2115
    -6      -5.345475       9.749549     -12.113567      7.1445
    -6      -7.384475       8.178549     -12.190567      7.2785
    -6      -6.717475       7.373549     -10.431568      7.1260
    -7       1.686525      15.862549      -5.616568     -2.2595
    -7      -3.168475      16.461548      -1.220568     -1.7140
    -7       0.837525      15.305549      -2.220568     -2.1995
    -7      -1.291475      19.071548      -6.001568     -2.2800
    -7      -5.285475       9.673549      -2.132568     -4.0275
    -7      -5.566475      12.430549      -5.283568     -3.6835
    -7       0.602525      11.406549      -5.952568     -1.6190
    -7       0.079525      12.557549      -8.721567     -1.9995
    -7      -5.039475      14.352549      -9.926567     -2.1770
    -7      -4.388475      15.855549      -8.659568     -2.1860
    -7      -5.846475      11.992549      -4.600568     -3.6870
    -7      -9.791475      10.517549     -12.684568     -1.8735
    -7      -7.512475      11.809548      -5.391568     -3.7050
    -7      -7.499475       6.227549      -7.227568     -2.8975
    -7      -2.039475       9.451549      -6.566567     -2.8950
    -7      -2.450475       6.769548      -1.770568     -1.6805
    -7      -8.075475       7.580548       0.442432     -2.1905
    -7     -11.487474       8.739549      -0.526568     -2.0075
    -7      -8.257475       9.871549       1.305432     -2.2935
    -7      -9.434475      15.848549       0.334432     -1.5375
    -7     -11.153475       9.395549       0.395432     -1.9310
    -7     -12.613475      13.672548       0.643432     -1.3890
    -7     -10.384475      10.406549      -5.844568     -3.2690
    -7      -5.952475       3.143549       0.201432     -1.1540
    -7      -8.764475      12.547548      -7.559567     -2.7435
    -7      -6.195475       7.324549      -9.731567     -2.6415
    -7     -10.170475       8.159549      -6.249568     -3.3740
    -8       0.444525      18.271549      -3.366568      3.5165
    -8      -2.213475      15.219549      -5.012568      5.5720
    -8      -2.508475      12.299548      -7.673568      4.5940
    -8      -6.674475      10.373549      -8.938568      5.4425
    -8      -2.259475      13.868548      -7.123568      3.5870
    -8      -5.764475       7.633549      -4.532568      7.2225
    -8      -7.972475       8.200548      -3.737568      5.9435
    -8      -6.468475       9.003549      -6.157568      5.2410
    -8      -8.605474       8.605549      -2.770568      5.7305
    -8      -9.994474      12.589548      -1.643568      6.2685
    -8      -9.293474      12.773548      -1.362568      6.2150
    -8      -5.897475       5.786549      -2.561568      6.2550
    -8      -6.610475       9.742548      -7.643568      4.9710
    -8      -9.697474       8.715549     -10.006568      4.1900

$$$$
