CatS_122_D
  xed2sdf_05210316543D
 
100105  0  0  1  0  0  0  0  0999 V2000
    1.1485   18.3992   -3.4968 C   0  0  0  0  0  0  0  0  0  0  0  0
    0.2035   17.6912   -2.6678 O   0  0  0  0  0  0  0  0  0  0  0  0
   -1.0965   18.0252   -2.7178 C   0  0  0  0  0  0  0  0  0  0  0  0
   -1.6075   19.0592   -1.9448 C   0  0  0  0  0  0  0  0  0  0  0  0
   -2.9335   19.4062   -2.0078 C   0  0  0  0  0  0  0  0  0  0  0  0
   -3.7745   18.7252   -2.8528 C   0  0  0  0  0  0  0  0  0  0  0  0
   -3.2805   17.6972   -3.6208 C   0  0  0  0  0  0  0  0  0  0  0  0
   -1.9545   17.3242   -3.5648 C   0  0  0  0  0  0  0  0  0  0  0  0
   -1.4705   16.1562   -4.4448 C   0  0  0  0  0  0  0  0  0  0  0  0
   -2.0435   14.7722   -4.0608 C   0  0  0  0  0  0  0  0  0  0  0  0
   -1.3095   13.6282   -4.7858 C   0  0  0  0  0  0  0  0  0  0  0  0
   -1.4395   13.7712   -6.2818 N   0  3  0  0  0  0  0  0  0  0  0  0
   -0.9255   15.1032   -6.7668 C   0  0  0  0  0  0  0  0  0  0  0  0
   -1.5245   16.3022   -5.9898 C   0  0  0  0  0  0  0  0  0  0  0  0
   -2.8415   13.5172   -6.7768 C   0  0  0  0  0  0  0  0  0  0  0  0
   -2.9345   13.1132   -8.2638 C   0  0  0  0  0  0  0  0  0  0  0  0
   -2.7855   11.5872   -8.3998 C   0  0  0  0  0  0  0  0  0  0  0  0
   -3.9365   10.8102   -7.9218 N   0  0  0  0  0  0  0  0  0  0  0  0
   -5.1705   10.6542   -8.4598 C   0  0  0  0  0  0  0  0  0  0  0  0
   -5.9275    9.7982   -7.7708 C   0  0  0  0  0  0  0  0  0  0  0  0
   -5.0935    9.4022   -6.6998 C   0  0  0  0  0  0  0  0  0  0  0  0
   -3.9345   10.0142   -6.8288 N   0  0  0  0  0  0  0  0  0  0  0  0
   -5.3815    8.4752   -5.6188 C   0  0  0  0  0  0  0  0  0  0  0  0
   -4.4415    7.5182   -5.2828 C   0  0  0  0  0  0  0  0  0  0  0  0
   -4.6865    6.6192   -4.2738 C   0  0  0  0  0  0  0  0  0  0  0  0
   -5.8665    6.6422   -3.5588 C   0  0  0  0  0  0  0  0  0  0  0  0
   -6.7995    7.6182   -3.8828 C   0  0  0  0  0  0  0  0  0  0  0  0
   -6.5635    8.5152   -4.9008 C   0  0  0  0  0  0  0  0  0  0  0  0
   -8.3585    7.7722   -2.9948 S   0  0  0  0  0  0  0  0  0  0  0  0
   -8.8835    9.5102   -2.8708 C   0  0  0  0  0  0  0  0  0  0  0  0
   -7.9675   10.3952   -1.9998 C   0  0  0  0  0  0  0  0  0  0  0  0
   -8.5045   11.7842   -1.7608 N   0  3  0  0  0  0  0  0  0  0  0  0
   -9.9675   11.7422   -1.3968 C   0  0  0  0  0  0  0  0  0  0  0  0
  -10.5515   13.1612   -1.2478 C   0  0  0  0  0  0  0  0  0  0  0  0
   -9.7455   13.9562   -0.2038 C   0  0  0  0  0  0  0  0  0  0  0  0
   -8.2625   14.0152   -0.6168 C   0  0  0  0  0  0  0  0  0  0  0  0
   -7.6935   12.5892   -0.7718 C   0  0  0  0  0  0  0  0  0  0  0  0
  -10.2505   15.2492   -0.1238 F   0  0  0  0  0  0  0  0  0  0  0  0
   -6.0255    5.5872   -2.4638 C   0  0  0  0  0  0  0  0  0  0  0  0
   -5.1085    4.5592   -2.6408 F   0  0  0  0  0  0  0  0  0  0  0  0
   -5.8165    6.1182   -1.1958 F   0  0  0  0  0  0  0  0  0  0  0  0
   -7.2905    5.0062   -2.4398 F   0  0  0  0  0  0  0  0  0  0  0  0
   -7.3415    9.4402   -8.2028 C   0  0  0  0  0  0  0  0  0  0  0  0
   -7.5475    9.6982   -9.6458 N   0  0  0  0  0  0  0  0  0  0  0  0
   -7.1735   11.0972   -9.9468 C   0  0  0  0  0  0  0  0  0  0  0  0
   -5.6615   11.3352   -9.7258 C   0  0  0  0  0  0  0  0  0  0  0  0
   -8.8865    9.1002  -10.3388 S   0  0  0  0  0  0  0  0  0  0  0  0
   -8.8095    9.4052  -11.7308 O   0  0  0  0  0  0  0  0  0  0  0  0
   -8.9685    7.7252   -9.9688 O   0  0  0  0  0  0  0  0  0  0  0  0
  -10.3085    9.9772   -9.6348 C   0  0  0  0  0  0  0  0  0  0  0  0
   -1.9085   13.7442   -9.0428 O   0  0  0  0  0  0  0  0  0  0  0  0
   -3.8275   13.4092   -8.6028 H   0  0  0  0  0  0  0  0  0  0  0  0
    0.6595   19.0892   -4.0308 H   0  0  0  0  0  0  0  0  0  0  0  0
    1.8365   18.8422   -2.9228 H   0  0  0  0  0  0  0  0  0  0  0  0
    1.6035   17.7562   -4.1128 H   0  0  0  0  0  0  0  0  0  0  0  0
   -0.9975   19.5602   -1.3308 H   0  0  0  0  0  0  0  0  0  0  0  0
   -3.2855   20.1522   -1.4418 H   0  0  0  0  0  0  0  0  0  0  0  0
   -4.7405   18.9752   -2.9078 H   0  0  0  0  0  0  0  0  0  0  0  0
   -3.8995   17.2082   -4.2358 H   0  0  0  0  0  0  0  0  0  0  0  0
   -0.5005   16.2142   -4.2078 H   0  0  0  0  0  0  0  0  0  0  0  0
   -3.0135   14.7442   -4.3038 H   0  0  0  0  0  0  0  0  0  0  0  0
   -1.9185   14.6462   -3.0768 H   0  0  0  0  0  0  0  0  0  0  0  0
   -1.7025   12.7542   -4.5028 H   0  0  0  0  0  0  0  0  0  0  0  0
   -0.3405   13.6662   -4.5448 H   0  0  0  0  0  0  0  0  0  0  0  0
   -0.9045   13.1352   -6.6568 H   0  0  0  0  0  0  0  0  0  0  0  0
   -1.1555   15.2012   -7.7358 H   0  0  0  0  0  0  0  0  0  0  0  0
    0.0625   15.1152   -6.6168 H   0  0  0  0  0  0  0  0  0  0  0  0
   -1.0195   17.1272   -6.2458 H   0  0  0  0  0  0  0  0  0  0  0  0
   -2.4915   16.3472   -6.2388 H   0  0  0  0  0  0  0  0  0  0  0  0
   -3.3775   14.3522   -6.6438 H   0  0  0  0  0  0  0  0  0  0  0  0
   -3.1925   12.7422   -6.2508 H   0  0  0  0  0  0  0  0  0  0  0  0
   -1.9785   11.3042   -7.8808 H   0  0  0  0  0  0  0  0  0  0  0  0
   -2.7075   11.3992   -9.3788 H   0  0  0  0  0  0  0  0  0  0  0  0
   -3.5745    7.4812   -5.7798 H   0  0  0  0  0  0  0  0  0  0  0  0
   -3.9945    5.9322   -4.0528 H   0  0  0  0  0  0  0  0  0  0  0  0
   -7.2545    9.2022   -5.1238 H   0  0  0  0  0  0  0  0  0  0  0  0
   -9.8045    9.5322   -2.4828 H   0  0  0  0  0  0  0  0  0  0  0  0
   -8.8415    9.8852   -3.7968 H   0  0  0  0  0  0  0  0  0  0  0  0
   -7.0795   10.4722   -2.4528 H   0  0  0  0  0  0  0  0  0  0  0  0
   -7.9045    9.9522   -1.1058 H   0  0  0  0  0  0  0  0  0  0  0  0
   -8.4485   12.2212   -2.5588 H   0  0  0  0  0  0  0  0  0  0  0  0
  -10.0755   11.2512   -0.5318 H   0  0  0  0  0  0  0  0  0  0  0  0
  -10.4615   11.2762   -2.1308 H   0  0  0  0  0  0  0  0  0  0  0  0
  -11.5065   13.0992   -0.9558 H   0  0  0  0  0  0  0  0  0  0  0  0
  -10.4985   13.6322   -2.1288 H   0  0  0  0  0  0  0  0  0  0  0  0
   -9.8205   13.5042    0.6852 H   0  0  0  0  0  0  0  0  0  0  0  0
   -7.7425   14.5062    0.0822 H   0  0  0  0  0  0  0  0  0  0  0  0
   -8.1875   14.4902   -1.4928 H   0  0  0  0  0  0  0  0  0  0  0  0
   -6.7475   12.6452   -1.0918 H   0  0  0  0  0  0  0  0  0  0  0  0
   -7.7335   12.1342    0.1172 H   0  0  0  0  0  0  0  0  0  0  0  0
   -7.9925    9.9862   -7.6758 H   0  0  0  0  0  0  0  0  0  0  0  0
   -7.4835    8.4642   -8.0348 H   0  0  0  0  0  0  0  0  0  0  0  0
   -7.6935   11.7092   -9.3508 H   0  0  0  0  0  0  0  0  0  0  0  0
   -7.3835   11.2802  -10.9068 H   0  0  0  0  0  0  0  0  0  0  0  0
   -5.1555   10.9732  -10.5088 H   0  0  0  0  0  0  0  0  0  0  0  0
   -5.5105   12.3192   -9.6318 H   0  0  0  0  0  0  0  0  0  0  0  0
  -10.8715    9.3272   -9.1248 H   0  0  0  0  0  0  0  0  0  0  0  0
   -9.9895   10.7002   -9.0208 H   0  0  0  0  0  0  0  0  0  0  0  0
  -10.8475   10.3882  -10.3688 H   0  0  0  0  0  0  0  0  0  0  0  0
   -1.1175   13.1352   -9.1698 H   0  0  0  0  0  0  0  0  0  0  0  0
  1  2  1  0
  2  3  1  0
  3  4  2  0
  3  8  1  0
  4  5  1  0
  5  6  2  0
  6  7  1  0
  7  8  2  0
  8  9  1  0
  9 10  1  0
  9 14  1  0
 10 11  1  0
 11 12  1  0
 12 13  1  0
 12 15  1  0
 13 14  1  0
 15 16  1  0
 16 17  1  0
 16 51  1  0
 17 18  1  0
 18 19  1  0
 18 22  1  0
 19 20  2  0
 19 46  1  0
 20 21  1  0
 20 43  1  0
 21 22  2  0
 21 23  1  0
 23 24  2  0
 23 28  1  0
 24 25  1  0
 25 26  2  0
 26 27  1  0
 26 39  1  0
 27 28  2  0
 27 29  1  0
 29 30  1  0
 30 31  1  0
 31 32  1  0
 32 33  1  0
 32 37  1  0
 33 34  1  0
 34 35  1  0
 35 36  1  0
 35 38  1  0
 36 37  1  0
 39 40  1  0
 39 41  1  0
 39 42  1  0
 43 44  1  0
 44 45  1  0
 44 47  1  0
 45 46  1  0
 47 48  2  0
 47 49  2  0
 47 50  1  0
  1 53  1  0
  1 54  1  0
  1 55  1  0
  4 56  1  0
  5 57  1  0
  6 58  1  0
  7 59  1  0
  9 60  1  0
 10 61  1  0
 10 62  1  0
 11 63  1  0
 11 64  1  0
 12 65  1  0
 13 66  1  0
 13 67  1  0
 14 68  1  0
 14 69  1  0
 15 70  1  0
 15 71  1  0
 16 52  1  0
 17 72  1  0
 17 73  1  0
 24 74  1  0
 25 75  1  0
 28 76  1  0
 30 77  1  0
 30 78  1  0
 31 79  1  0
 31 80  1  0
 32 81  1  0
 33 82  1  0
 33 83  1  0
 34 84  1  0
 34 85  1  0
 35 86  1  0
 36 87  1  0
 36 88  1  0
 37 89  1  0
 37 90  1  0
 43 91  1  0
 43 92  1  0
 45 93  1  0
 45 94  1  0
 46 95  1  0
 46 96  1  0
 50 97  1  0
 50 98  1  0
 50 99  1  0
 51100  1  0
M  CHG  2  12   1  32   1
M  END
>  <LF dG>
-12.425

>  <LF VSscore>
-14.603

>  <LF Rank Score>
-10.788

>  <LF LE>
-0.244

>  <Favorite_cresset>
false

>  <Protein_cresset>
haan-CatS_chainA-aligned_P

>  <MW_cresset>
755.9

>  <#Atoms_cresset>
51

>  <SlogP_cresset>
6

>  <TPSA_cresset>
93.5

>  <Flexibility_cresset>
12.9

>  <#RB_cresset>
14

>  <Rof5_cresset>
2

>  <Filename_cresset>
CatS_122.pdb

>  <Preferred Pose_cresset>
true

>  <_cresset_fieldpoints>
    -5       0.189506      16.012192      -1.032798     -3.1530
    -5      -2.277494      16.304192      -0.622797     -2.7840
    -5      -2.056494      20.247192      -4.986798     -1.1665
    -5      -8.481494       7.031193     -12.043797     -5.5090
    -5      -6.659494       7.506193     -10.630797     -5.1870
    -5      -2.907494      10.363193      -5.191798     -1.9555
    -5      -2.216494      15.375193      -9.880797     -2.8295
    -6       1.805506      16.752193      -6.282798      5.4460
    -6       0.095506      12.208193      -8.286798     15.3625
    -6      -1.834494      21.610191      -0.109797      4.0180
    -6       0.892506      20.975193      -1.704798      4.0695
    -6      -8.568494      12.133193      -4.660798     11.7925
    -6      -5.997494      20.635193      -1.894798      4.2010
    -6      -5.082494      15.629192      -5.424798      7.3900
    -6      -3.190494      12.036193     -11.431797      7.6790
    -6      -1.767494       5.916193      -4.923798      4.3895
    -6      -9.397493      11.401193       1.785203      5.2040
    -6      -8.431494      11.212193      -5.598798     11.4370
    -7       1.542506      17.357193      -6.640798     -2.0015
    -7       0.906506      15.036193      -2.463798     -2.7550
    -7       1.224506      18.612192      -0.173798     -1.6155
    -7       1.744506      15.197193      -4.555798     -2.7175
    -7      -4.997494      14.992193      -2.429798     -2.4655
    -7      -2.997494      15.729193      -0.859797     -2.3855
    -7      -1.328494      19.752193      -5.660798     -2.7425
    -7      -7.323494      11.674192      -5.069798     -3.7435
    -7      -4.669494      11.721192      -4.431798     -3.3475
    -7      -4.779494       9.386192      -1.967798     -3.2855
    -7       0.652506      12.231193      -8.248797     -1.9335
    -7       1.609506      13.002192      -6.246798     -1.6575
    -7      -3.486494      16.252193      -8.685798     -2.2355
    -7      -5.129494      15.655192      -5.528798     -2.6620
    -7      -5.776494       8.105192     -10.786798     -2.7685
    -7      -3.447494      13.025192     -11.416798     -1.9805
    -7      -2.239494      10.402193      -5.346797     -3.4950
    -7      -0.192494      15.009192     -10.084797     -1.5020
    -7      -2.274494       8.450192      -7.877798     -2.5320
    -7      -9.814493       8.777193       0.271203     -2.2275
    -7      -7.930494       7.995193       0.516202     -2.0155
    -7     -11.541494      11.766192       1.618202     -1.6840
    -7      -9.318494      11.220193       1.890203     -2.0885
    -7      -8.792494      10.078193       1.306202     -2.1195
    -7      -9.730494      12.151193      -4.680798     -2.4965
    -7      -8.064494      13.098192       2.581203     -1.6655
    -7     -12.628494      15.315193      -2.470798     -1.1575
    -7      -8.793493      14.168193      -3.999798     -2.1620
    -7      -6.343494       3.100193       0.127203     -1.1530
    -7      -7.338494       6.065193      -6.933798     -2.9315
    -7      -9.601494      12.931192      -4.542798     -2.1710
    -7      -9.728494       8.846192      -6.192798     -3.2520
    -7      -9.486494      11.668193     -12.364798     -1.8820
    -8       1.659506      18.836193      -4.031797      2.5625
    -8      -2.468494      18.377193      -2.793798      7.0690
    -8      -1.554494      15.405192      -5.060798      6.0645
    -8      -1.874494      16.046192      -4.624798      5.9670
    -8      -2.966494      12.638193      -7.568798      4.3910
    -8      -6.265494      10.706193      -8.818798      5.3505
    -8      -5.627494       7.561193      -4.582798      7.2170
    -8      -6.171494       9.745193      -7.705798      4.9190
    -8      -8.168493       9.041193      -2.770798      5.6940
    -8      -5.981494       5.732193      -2.620798      6.2520
    -8      -9.814493       9.806192      -9.746798      4.1615
    -8      -9.400494      13.444193      -0.775798      6.0880
    -8      -7.631494       8.446193      -3.706798      5.8120
    -8      -7.923494      10.008193      -9.383798      3.1840

$$$$
