CatS_184_D
  xed2sdf_05210316543D
 
 95 99  0  0  1  0  0  0  0  0999 V2000
  -11.5825   13.5797    0.5111 C   0  0  0  0  0  0  0  0  0  0  0  0
  -10.2805   13.6197   -0.3019 C   0  0  0  0  0  0  0  0  0  0  0  0
  -10.5075   12.9277   -1.6609 C   0  0  0  0  0  0  0  0  0  0  0  0
   -9.1895   12.8847   -2.4639 C   0  0  0  0  0  0  0  0  0  0  0  0
   -8.0735   12.2267   -1.6849 N   0  3  0  0  0  0  0  0  0  0  0  0
   -7.8615   12.8797   -0.3389 C   0  0  0  0  0  0  0  0  0  0  0  0
   -9.1615   12.9177    0.4931 C   0  0  0  0  0  0  0  0  0  0  0  0
   -8.1445   10.7167   -1.6129 C   0  0  0  0  0  0  0  0  0  0  0  0
   -7.9335   10.0237   -2.9759 C   0  0  0  0  0  0  0  0  0  0  0  0
   -7.5985    8.2527   -2.7479 S   0  0  0  0  0  0  0  0  0  0  0  0
   -6.4675    7.7557   -4.0579 C   0  0  0  0  0  0  0  0  0  0  0  0
   -6.2965    8.6337   -5.1029 C   0  0  0  0  0  0  0  0  0  0  0  0
   -5.4055    8.3627   -6.1219 C   0  0  0  0  0  0  0  0  0  0  0  0
   -4.7015    7.1727   -6.0799 C   0  0  0  0  0  0  0  0  0  0  0  0
   -4.8915    6.2867   -5.0459 C   0  0  0  0  0  0  0  0  0  0  0  0
   -5.7745    6.5527   -4.0189 C   0  0  0  0  0  0  0  0  0  0  0  0
   -5.8925    5.4987   -2.9179 C   0  0  0  0  0  0  0  0  0  0  0  0
   -5.0515    4.4137   -3.1419 F   0  0  0  0  0  0  0  0  0  0  0  0
   -7.1915    5.0087   -2.8499 F   0  0  0  0  0  0  0  0  0  0  0  0
   -5.5725    5.9847   -1.6529 F   0  0  0  0  0  0  0  0  0  0  0  0
   -5.1985    9.3157   -7.1979 C   0  0  0  0  0  0  0  0  0  0  0  0
   -6.1155    9.7197   -8.1959 C   0  0  0  0  0  0  0  0  0  0  0  0
   -5.4415   10.6367   -8.8899 C   0  0  0  0  0  0  0  0  0  0  0  0
   -4.1845   10.8277   -8.4189 N   0  0  0  0  0  0  0  0  0  0  0  0
   -4.0735    9.9767   -7.3749 N   0  0  0  0  0  0  0  0  0  0  0  0
   -3.1345   11.7507   -8.8679 C   0  0  0  0  0  0  0  0  0  0  0  0
   -2.9655   12.9987   -7.9759 C   0  0  0  0  0  0  0  0  0  0  0  0
   -1.9695   12.7257   -6.8279 C   0  0  0  0  0  0  0  0  0  0  0  0
   -1.6195   13.9417   -6.0029 N   0  3  0  0  0  0  0  0  0  0  0  0
   -2.4165   14.0327   -4.7229 C   0  0  0  0  0  0  0  0  0  0  0  0
   -2.0275   15.2727   -3.8879 C   0  0  0  0  0  0  0  0  0  0  0  0
   -2.0985   16.5907   -4.6899 C   0  0  0  0  0  0  0  0  0  0  0  0
   -1.3145   16.4567   -6.0149 C   0  0  0  0  0  0  0  0  0  0  0  0
   -1.7095   15.2037   -6.8269 C   0  0  0  0  0  0  0  0  0  0  0  0
   -3.5595   17.0217   -4.9359 C   0  0  0  0  0  0  0  0  0  0  0  0
   -1.4495   17.7007   -3.8449 C   0  0  0  0  0  0  0  0  0  0  0  0
   -4.2355   13.4077   -7.4439 O   0  0  0  0  0  0  0  0  0  0  0  0
   -6.0485   11.3547  -10.0829 C   0  0  0  0  0  0  0  0  0  0  0  0
   -7.5595   11.0507  -10.2259 C   0  0  0  0  0  0  0  0  0  0  0  0
   -7.8725    9.6317   -9.9519 N   0  0  0  0  0  0  0  0  0  0  0  0
   -7.5465    9.3297   -8.5389 C   0  0  0  0  0  0  0  0  0  0  0  0
   -9.2665    9.0467  -10.5519 S   0  0  0  0  0  0  0  0  0  0  0  0
   -9.3095    7.6537  -10.2459 O   0  0  0  0  0  0  0  0  0  0  0  0
   -9.3215    9.4317  -11.9259 O   0  0  0  0  0  0  0  0  0  0  0  0
  -10.6255    9.8677   -9.6769 C   0  0  0  0  0  0  0  0  0  0  0  0
   -2.5975   13.7377   -8.5409 H   0  0  0  0  0  0  0  0  0  0  0  0
  -11.9215   14.5127    0.6291 H   0  0  0  0  0  0  0  0  0  0  0  0
  -12.2655   13.0317    0.0291 H   0  0  0  0  0  0  0  0  0  0  0  0
  -11.4075   13.1687    1.4061 H   0  0  0  0  0  0  0  0  0  0  0  0
  -10.0055   14.5667   -0.4689 H   0  0  0  0  0  0  0  0  0  0  0  0
  -11.1965   13.4337   -2.1799 H   0  0  0  0  0  0  0  0  0  0  0  0
  -10.8225   11.9917   -1.5029 H   0  0  0  0  0  0  0  0  0  0  0  0
   -8.9185   13.8197   -2.6929 H   0  0  0  0  0  0  0  0  0  0  0  0
   -9.3485   12.3447   -3.2899 H   0  0  0  0  0  0  0  0  0  0  0  0
   -7.3105   12.4007   -2.1539 H   0  0  0  0  0  0  0  0  0  0  0  0
   -7.5375   13.8157   -0.4799 H   0  0  0  0  0  0  0  0  0  0  0  0
   -7.1875   12.3397    0.1651 H   0  0  0  0  0  0  0  0  0  0  0  0
   -9.4445   11.9837    0.7111 H   0  0  0  0  0  0  0  0  0  0  0  0
   -8.9925   13.4247    1.3381 H   0  0  0  0  0  0  0  0  0  0  0  0
   -9.0435   10.4577   -1.2599 H   0  0  0  0  0  0  0  0  0  0  0  0
   -7.4025   10.4157   -1.0149 H   0  0  0  0  0  0  0  0  0  0  0  0
   -7.1595   10.4487   -3.4459 H   0  0  0  0  0  0  0  0  0  0  0  0
   -8.7645   10.1257   -3.5219 H   0  0  0  0  0  0  0  0  0  0  0  0
   -6.8265    9.4817   -5.1249 H   0  0  0  0  0  0  0  0  0  0  0  0
   -4.0495    6.9557   -6.8069 H   0  0  0  0  0  0  0  0  0  0  0  0
   -4.3775    5.4287   -5.0379 H   0  0  0  0  0  0  0  0  0  0  0  0
   -3.3555   12.0527   -9.7949 H   0  0  0  0  0  0  0  0  0  0  0  0
   -2.2715   11.2477   -8.8219 H   0  0  0  0  0  0  0  0  0  0  0  0
   -1.1275   12.3587   -7.2229 H   0  0  0  0  0  0  0  0  0  0  0  0
   -2.4185   12.0817   -6.2079 H   0  0  0  0  0  0  0  0  0  0  0  0
   -0.7435   13.8607   -5.7629 H   0  0  0  0  0  0  0  0  0  0  0  0
   -2.2515   13.2097   -4.1789 H   0  0  0  0  0  0  0  0  0  0  0  0
   -3.3825   14.1157   -4.9649 H   0  0  0  0  0  0  0  0  0  0  0  0
   -1.0935   15.1517   -3.5529 H   0  0  0  0  0  0  0  0  0  0  0  0
   -2.6855   15.3457   -3.1389 H   0  0  0  0  0  0  0  0  0  0  0  0
   -0.3375   16.4087   -5.8049 H   0  0  0  0  0  0  0  0  0  0  0  0
   -1.5335   17.2557   -6.5749 H   0  0  0  0  0  0  0  0  0  0  0  0
   -2.6495   15.3107   -7.1529 H   0  0  0  0  0  0  0  0  0  0  0  0
   -1.0705   15.1187   -7.5909 H   0  0  0  0  0  0  0  0  0  0  0  0
   -3.7185   17.9027   -4.4909 H   0  0  0  0  0  0  0  0  0  0  0  0
   -3.7255   17.1067   -5.9189 H   0  0  0  0  0  0  0  0  0  0  0  0
   -4.1815   16.3357   -4.5589 H   0  0  0  0  0  0  0  0  0  0  0  0
   -2.1275   18.4137   -3.6689 H   0  0  0  0  0  0  0  0  0  0  0  0
   -1.1285   17.3197   -2.9779 H   0  0  0  0  0  0  0  0  0  0  0  0
   -0.6715   18.0887   -4.3389 H   0  0  0  0  0  0  0  0  0  0  0  0
   -4.3585   13.0827   -6.4999 H   0  0  0  0  0  0  0  0  0  0  0  0
   -5.5765   11.0607  -10.9139 H   0  0  0  0  0  0  0  0  0  0  0  0
   -5.9415   12.3387   -9.9419 H   0  0  0  0  0  0  0  0  0  0  0  0
   -7.8475   11.2727  -11.1569 H   0  0  0  0  0  0  0  0  0  0  0  0
   -8.0485   11.6067   -9.5539 H   0  0  0  0  0  0  0  0  0  0  0  0
   -8.1725    9.8337   -7.9449 H   0  0  0  0  0  0  0  0  0  0  0  0
   -7.6425    8.3437   -8.4019 H   0  0  0  0  0  0  0  0  0  0  0  0
  -11.1425   10.4247  -10.3279 H   0  0  0  0  0  0  0  0  0  0  0  0
  -11.2275    9.1817   -9.2689 H   0  0  0  0  0  0  0  0  0  0  0  0
  -10.2575   10.4497   -8.9529 H   0  0  0  0  0  0  0  0  0  0  0  0
  1  2  1  0
  2  3  1  0
  2  7  1  0
  3  4  1  0
  4  5  1  0
  5  6  1  0
  5  8  1  0
  6  7  1  0
  8  9  1  0
  9 10  1  0
 10 11  1  0
 11 12  2  0
 11 16  1  0
 12 13  1  0
 13 14  2  0
 13 21  1  0
 14 15  1  0
 15 16  2  0
 16 17  1  0
 17 18  1  0
 17 19  1  0
 17 20  1  0
 21 22  1  0
 21 25  2  0
 22 23  2  0
 22 41  1  0
 23 24  1  0
 23 38  1  0
 24 25  1  0
 24 26  1  0
 26 27  1  0
 27 28  1  0
 27 37  1  0
 28 29  1  0
 29 30  1  0
 29 34  1  0
 30 31  1  0
 31 32  1  0
 32 33  1  0
 32 35  1  0
 32 36  1  0
 33 34  1  0
 38 39  1  0
 39 40  1  0
 40 41  1  0
 40 42  1  0
 42 43  2  0
 42 44  2  0
 42 45  1  0
  1 47  1  0
  1 48  1  0
  1 49  1  0
  2 50  1  0
  3 51  1  0
  3 52  1  0
  4 53  1  0
  4 54  1  0
  5 55  1  0
  6 56  1  0
  6 57  1  0
  7 58  1  0
  7 59  1  0
  8 60  1  0
  8 61  1  0
  9 62  1  0
  9 63  1  0
 12 64  1  0
 14 65  1  0
 15 66  1  0
 26 67  1  0
 26 68  1  0
 27 46  1  0
 28 69  1  0
 28 70  1  0
 29 71  1  0
 30 72  1  0
 30 73  1  0
 31 74  1  0
 31 75  1  0
 33 76  1  0
 33 77  1  0
 34 78  1  0
 34 79  1  0
 35 80  1  0
 35 81  1  0
 35 82  1  0
 36 83  1  0
 36 84  1  0
 36 85  1  0
 37 86  1  0
 38 87  1  0
 38 88  1  0
 39 89  1  0
 39 90  1  0
 41 91  1  0
 41 92  1  0
 45 93  1  0
 45 94  1  0
 45 95  1  0
M  CHG  2   5   1  29   1
M  END
>  <LF dG>
-13.251

>  <LF VSscore>
-14.198

>  <LF Rank Score>
-10.795

>  <LF LE>
-0.294

>  <Favorite_cresset>
false

>  <Protein_cresset>
haan-CatS_chainA-aligned_P

>  <MW_cresset>
673.9

>  <#Atoms_cresset>
45

>  <SlogP_cresset>
5.6

>  <TPSA_cresset>
84.3

>  <Flexibility_cresset>
12.4

>  <#RB_cresset>
12

>  <Rof5_cresset>
2

>  <Filename_cresset>
CatS_184.pdb

>  <Preferred Pose_cresset>
true

>  <_cresset_fieldpoints>
    -5      -8.968521       7.093715     -12.400947     -6.0755
    -5      -2.413521       9.368715      -6.658947     -2.6700
    -5      -6.882521       7.784715     -11.159946     -5.9505
    -5      -3.181520       8.628716      -9.089947     -2.6005
    -5      -5.216520      14.751715      -8.147946     -3.5545
    -6      -5.276521      12.619715      -4.877947     10.8780
    -6      -5.960521      12.628716      -3.757947     11.3775
    -6     -11.109520      10.123715       0.027053      4.0850
    -6      -2.613521       4.752715      -6.344947      3.8370
    -6      -4.076520      13.154715     -11.598947      6.6775
    -6       1.201479      13.885715      -5.358947      9.1130
    -6      -2.159521      19.668716      -6.346947      4.2245
    -6      -8.300521      11.099715      -5.781947      9.8750
    -6      -0.343521      13.023715      -9.471947      7.9395
    -7     -11.742520      16.049715      -1.905947     -1.6125
    -7      -9.551520      16.014715       1.782053     -1.6070
    -7     -10.370521      16.115715      -2.536947     -1.6800
    -7      -8.234521      16.058716      -1.576947     -1.9455
    -7     -11.210521       9.771715      -2.701947     -2.3945
    -7      -8.130521       9.831715       1.443053     -1.9810
    -7     -11.145521      10.151715       0.211053     -2.5250
    -7      -8.189521       6.430715      -6.679947     -3.0865
    -7      -5.493521      13.968715      -3.254947     -2.5420
    -7      -8.298521      16.101715       0.773053     -1.6770
    -7      -4.839520      11.645715      -4.897947     -4.0325
    -7      -6.151521       8.162715     -11.291946     -2.7380
    -7      -1.947521       9.434715      -6.691947     -2.9460
    -7      -5.994521       6.447715      -9.108947     -2.3680
    -7      -6.282521       2.999715      -0.344947     -1.1540
    -7      -8.389521       6.158715       0.063053     -1.4645
    -7      -5.393520      15.116714      -6.602947     -2.8300
    -7      -0.062521      13.487715      -9.429947     -1.9340
    -7       0.065479      11.915715      -4.364947     -1.7185
    -7       1.190479      13.815715      -7.391947     -1.8165
    -7       1.241479      14.852715      -4.539947     -2.2230
    -7      -3.542521      17.335714      -8.486946     -1.8150
    -7      -2.323521      19.740715      -6.246947     -1.9185
    -7       1.453479      14.512715      -6.698947     -1.7945
    -7      -7.804521      11.568715      -5.869946     -3.6900
    -7      -3.876521      17.181715      -1.696947     -1.9335
    -7      -6.541521      13.096715     -12.744946     -1.1720
    -7     -10.057520      11.697715     -12.427946     -1.8695
    -7      -9.446521       9.033715      -5.900947     -3.2065
    -8     -10.392521      13.137715      -0.233947      6.1535
    -8      -9.706520      13.068715      -0.663947      6.0670
    -8      -7.109520       8.813715      -3.728947      6.0025
    -8      -5.594521       7.458715      -5.066947      7.2145
    -8      -7.834520       9.525715      -2.439947      5.6095
    -8      -5.868521       5.637715      -3.080947      6.2460
    -8      -6.564520      10.650715      -9.174947      5.3575
    -8      -6.351521       9.664715      -8.122947      4.9125
    -8     -10.139521       9.715715      -9.841947      4.1630
    -8      -2.101521      16.611715      -4.665947      6.4955
    -8      -2.275521      12.348715      -7.990947      4.7675

$$$$
