CatS_178_D
  xed2sdf_05210316543D
 
 94 98  0  0  1  0  0  0  0  0999 V2000
   -7.0885    5.2569   -4.2352 C   0  0  0  0  0  0  0  0  0  0  0  0
   -5.6575    5.4189   -3.1332 S   0  0  0  0  0  0  0  0  0  0  0  0
   -6.1475    5.5629   -1.8012 O   0  0  0  0  0  0  0  0  0  0  0  0
   -4.7595    4.3429   -3.4012 O   0  0  0  0  0  0  0  0  0  0  0  0
   -4.8775    6.8109   -3.4642 N   0  0  0  0  0  0  0  0  0  0  0  0
   -4.0775    6.9649   -4.6992 C   0  0  0  0  0  0  0  0  0  0  0  0
   -4.9265    7.3389   -5.9362 C   0  0  0  0  0  0  0  0  0  0  0  0
   -6.0595    8.2909   -5.5862 C   0  0  0  0  0  0  0  0  0  0  0  0
   -6.3545    8.6269   -4.3272 C   0  0  0  0  0  0  0  0  0  0  0  0
   -7.4575    9.5039   -4.4702 C   0  0  0  0  0  0  0  0  0  0  0  0
   -7.7185    9.6349   -5.7542 N   0  0  0  0  0  0  0  0  0  0  0  0
   -6.8775    8.8819   -6.4922 N   0  0  0  0  0  0  0  0  0  0  0  0
   -6.9345    8.7539   -7.9552 C   0  0  0  0  0  0  0  0  0  0  0  0
   -7.2595   10.1029   -8.6262 C   0  0  0  0  0  0  0  0  0  0  0  0
   -7.9815    9.8939   -9.9752 C   0  0  0  0  0  0  0  0  0  0  0  0
   -9.4475   10.2469   -9.9122 N   0  3  0  0  0  0  0  0  0  0  0  0
  -10.1825    9.5829   -8.7622 C   0  0  0  0  0  0  0  0  0  0  0  0
  -11.4235    8.7859   -9.2132 C   0  0  0  0  0  0  0  0  0  0  0  0
  -12.3755    9.6539  -10.0662 C   0  0  0  0  0  0  0  0  0  0  0  0
  -11.6225   10.4299  -11.1752 C   0  0  0  0  0  0  0  0  0  0  0  0
  -10.1235   10.0719  -11.2512 C   0  0  0  0  0  0  0  0  0  0  0  0
  -13.3845    8.7619  -10.6722 N   0  0  0  0  0  0  0  0  0  0  0  0
  -14.5455    8.4239  -10.0762 C   0  0  0  0  0  0  0  0  0  0  0  0
  -15.3735    7.6839  -10.5862 O   0  0  0  0  0  0  0  0  0  0  0  0
  -14.7885    9.0319   -8.7122 C   0  0  0  0  0  0  0  0  0  0  0  0
  -15.3065    8.0089   -7.8492 O   0  0  0  0  0  0  0  0  0  0  0  0
   -6.0535   10.8559   -8.8212 O   0  0  0  0  0  0  0  0  0  0  0  0
   -8.2415   10.1919   -3.4582 C   0  0  0  0  0  0  0  0  0  0  0  0
   -8.4185   11.5599   -3.5462 C   0  0  0  0  0  0  0  0  0  0  0  0
   -9.1715   12.2329   -2.6132 C   0  0  0  0  0  0  0  0  0  0  0  0
   -9.7825   11.5749   -1.5642 C   0  0  0  0  0  0  0  0  0  0  0  0
   -9.6155   10.1989   -1.4882 C   0  0  0  0  0  0  0  0  0  0  0  0
   -8.8545    9.5249   -2.4132 C   0  0  0  0  0  0  0  0  0  0  0  0
  -10.4025    9.1969   -0.2182 S   0  0  0  0  0  0  0  0  0  0  0  0
  -11.9825    8.5739   -0.8632 C   0  0  0  0  0  0  0  0  0  0  0  0
  -12.9195    8.0509    0.2468 C   0  0  0  0  0  0  0  0  0  0  0  0
  -13.4855    9.1409    1.1218 N   0  3  0  0  0  0  0  0  0  0  0  0
  -14.3015   10.1329    0.3268 C   0  0  0  0  0  0  0  0  0  0  0  0
  -14.7935   11.2919    1.2178 C   0  0  0  0  0  0  0  0  0  0  0  0
  -15.5995   10.7329    2.4048 C   0  0  0  0  0  0  0  0  0  0  0  0
  -14.7425    9.7459    3.2198 C   0  0  0  0  0  0  0  0  0  0  0  0
  -14.2425    8.6039    2.3118 C   0  0  0  0  0  0  0  0  0  0  0  0
  -16.7405   10.0909    1.9368 F   0  0  0  0  0  0  0  0  0  0  0  0
  -16.0185   11.7779    3.2198 F   0  0  0  0  0  0  0  0  0  0  0  0
  -10.6055   12.4469   -0.6162 C   0  0  0  0  0  0  0  0  0  0  0  0
  -11.8905   11.9499   -0.4112 F   0  0  0  0  0  0  0  0  0  0  0  0
  -10.7655   13.7509   -1.0702 F   0  0  0  0  0  0  0  0  0  0  0  0
   -9.9915   12.5139    0.6288 F   0  0  0  0  0  0  0  0  0  0  0  0
   -5.5405    8.0949   -3.1502 C   0  0  0  0  0  0  0  0  0  0  0  0
   -7.8725   10.6129   -8.0232 H   0  0  0  0  0  0  0  0  0  0  0  0
   -7.1275    6.0539   -4.8382 H   0  0  0  0  0  0  0  0  0  0  0  0
   -7.0015    4.4249   -4.7822 H   0  0  0  0  0  0  0  0  0  0  0  0
   -7.9275    5.2029   -3.6932 H   0  0  0  0  0  0  0  0  0  0  0  0
   -3.6065    6.1019   -4.8832 H   0  0  0  0  0  0  0  0  0  0  0  0
   -3.4365    7.7159   -4.5432 H   0  0  0  0  0  0  0  0  0  0  0  0
   -5.3125    6.5039   -6.3292 H   0  0  0  0  0  0  0  0  0  0  0  0
   -4.3285    7.8019   -6.5912 H   0  0  0  0  0  0  0  0  0  0  0  0
   -7.6415    8.0889   -8.1962 H   0  0  0  0  0  0  0  0  0  0  0  0
   -6.0385    8.4499   -8.2792 H   0  0  0  0  0  0  0  0  0  0  0  0
   -7.8925    8.9349  -10.2422 H   0  0  0  0  0  0  0  0  0  0  0  0
   -7.5545   10.5029  -10.6432 H   0  0  0  0  0  0  0  0  0  0  0  0
   -9.4775   11.1439   -9.7522 H   0  0  0  0  0  0  0  0  0  0  0  0
  -10.4735   10.2899   -8.1182 H   0  0  0  0  0  0  0  0  0  0  0  0
   -9.5495    8.9319   -8.3422 H   0  0  0  0  0  0  0  0  0  0  0  0
  -11.9135    8.4599   -8.4042 H   0  0  0  0  0  0  0  0  0  0  0  0
  -11.1155    8.0169   -9.7732 H   0  0  0  0  0  0  0  0  0  0  0  0
  -12.8055   10.3369   -9.4762 H   0  0  0  0  0  0  0  0  0  0  0  0
  -11.7105   11.4099  -10.9962 H   0  0  0  0  0  0  0  0  0  0  0  0
  -12.0335   10.1739  -12.0502 H   0  0  0  0  0  0  0  0  0  0  0  0
  -10.0275    9.1209  -11.5442 H   0  0  0  0  0  0  0  0  0  0  0  0
   -9.6865   10.6879  -11.9072 H   0  0  0  0  0  0  0  0  0  0  0  0
  -13.2305    8.4379  -11.4762 H   0  0  0  0  0  0  0  0  0  0  0  0
  -15.4465    9.7809   -8.7852 H   0  0  0  0  0  0  0  0  0  0  0  0
  -13.9345    9.3959   -8.3402 H   0  0  0  0  0  0  0  0  0  0  0  0
  -16.3065    7.9379   -7.9252 H   0  0  0  0  0  0  0  0  0  0  0  0
   -5.2915   10.2619   -9.1012 H   0  0  0  0  0  0  0  0  0  0  0  0
   -7.9945   12.0659   -4.2972 H   0  0  0  0  0  0  0  0  0  0  0  0
   -9.2785   13.2239   -2.6962 H   0  0  0  0  0  0  0  0  0  0  0  0
   -8.7415    8.5339   -2.3302 H   0  0  0  0  0  0  0  0  0  0  0  0
  -11.7965    7.8289   -1.5042 H   0  0  0  0  0  0  0  0  0  0  0  0
  -12.4465    9.3389   -1.3112 H   0  0  0  0  0  0  0  0  0  0  0  0
  -12.4055    7.4149    0.8228 H   0  0  0  0  0  0  0  0  0  0  0  0
  -13.6935    7.6089   -0.2062 H   0  0  0  0  0  0  0  0  0  0  0  0
  -12.7745    9.6059    1.4518 H   0  0  0  0  0  0  0  0  0  0  0  0
  -15.0915    9.6649   -0.0692 H   0  0  0  0  0  0  0  0  0  0  0  0
  -13.7225   10.5139   -0.3932 H   0  0  0  0  0  0  0  0  0  0  0  0
  -15.3725   11.9039    0.6798 H   0  0  0  0  0  0  0  0  0  0  0  0
  -14.0035   11.7969    1.5668 H   0  0  0  0  0  0  0  0  0  0  0  0
  -15.2915    9.3649    3.9638 H   0  0  0  0  0  0  0  0  0  0  0  0
  -13.9545   10.2319    3.5968 H   0  0  0  0  0  0  0  0  0  0  0  0
  -13.6405    8.0049    2.8398 H   0  0  0  0  0  0  0  0  0  0  0  0
  -15.0375    8.0959    1.9788 H   0  0  0  0  0  0  0  0  0  0  0  0
   -4.8425    8.7689   -2.9072 H   0  0  0  0  0  0  0  0  0  0  0  0
   -6.1695    7.9379   -2.3892 H   0  0  0  0  0  0  0  0  0  0  0  0
  1  2  1  0
  2  3  2  0
  2  4  2  0
  2  5  1  0
  5  6  1  0
  5 49  1  0
  6  7  1  0
  7  8  1  0
  8  9  2  0
  8 12  1  0
  9 10  1  0
  9 49  1  0
 10 11  2  0
 10 28  1  0
 11 12  1  0
 12 13  1  0
 13 14  1  0
 14 15  1  0
 14 27  1  0
 15 16  1  0
 16 17  1  0
 16 21  1  0
 17 18  1  0
 18 19  1  0
 19 20  1  0
 19 22  1  0
 20 21  1  0
 22 23  1  0
 23 24  2  0
 23 25  1  0
 25 26  1  0
 28 29  2  0
 28 33  1  0
 29 30  1  0
 30 31  2  0
 31 32  1  0
 31 45  1  0
 32 33  2  0
 32 34  1  0
 34 35  1  0
 35 36  1  0
 36 37  1  0
 37 38  1  0
 37 42  1  0
 38 39  1  0
 39 40  1  0
 40 41  1  0
 40 43  1  0
 40 44  1  0
 41 42  1  0
 45 46  1  0
 45 47  1  0
 45 48  1  0
  1 51  1  0
  1 52  1  0
  1 53  1  0
  6 54  1  0
  6 55  1  0
  7 56  1  0
  7 57  1  0
 13 58  1  0
 13 59  1  0
 14 50  1  0
 15 60  1  0
 15 61  1  0
 16 62  1  0
 17 63  1  0
 17 64  1  0
 18 65  1  0
 18 66  1  0
 19 67  1  0
 20 68  1  0
 20 69  1  0
 21 70  1  0
 21 71  1  0
 22 72  1  0
 25 73  1  0
 25 74  1  0
 26 75  1  0
 27 76  1  0
 29 77  1  0
 30 78  1  0
 33 79  1  0
 35 80  1  0
 35 81  1  0
 36 82  1  0
 36 83  1  0
 37 84  1  0
 38 85  1  0
 38 86  1  0
 39 87  1  0
 39 88  1  0
 41 89  1  0
 41 90  1  0
 42 91  1  0
 42 92  1  0
 49 93  1  0
 49 94  1  0
M  CHG  2  16   1  37   1
M  END
>  <LF dG>
-10.055

>  <LF VSscore>
-11.793

>  <LF Rank Score>
-6.304

>  <LF LE>
-0.205

>  <Favorite_cresset>
false

>  <Protein_cresset>
haan-CatS_chainA-aligned_P

>  <MW_cresset>
740.8

>  <#Atoms_cresset>
49

>  <SlogP_cresset>
3.4

>  <TPSA_cresset>
133.6

>  <Flexibility_cresset>
15.4

>  <#RB_cresset>
15

>  <Rof5_cresset>
2

>  <Filename_cresset>
CatS_178.pdb

>  <Preferred Pose_cresset>
true

>  <_cresset_fieldpoints>
    -5      -4.016543       5.016938      -1.098210     -6.1665
    -5      -5.794543      12.196939      -7.538210     -4.1950
    -5      -9.861544       9.526938      -5.808209     -1.1205
    -5     -15.471543       6.637938     -12.009210     -7.6110
    -5     -14.845543       6.220939      -8.568210     -6.2745
    -5     -18.938543      11.545938       3.244790     -1.8025
    -6      -9.680543       6.577938      -2.888210      6.6970
    -6      -9.035543      14.661938      -4.424210      5.1685
    -6     -13.640543      10.741939      -2.812210      5.1825
    -6      -4.567544       8.806938      -9.818210     13.9150
    -6     -11.764544       7.925939     -12.937210      7.8685
    -6     -17.604544       9.174938      -7.796210      7.2660
    -6     -11.803543      10.800939       2.773790      8.0470
    -6     -10.725543      12.699938      -9.174210      9.8115
    -6      -5.437543      10.515938      -1.368210      2.9770
    -7      -4.599544       3.896938      -5.884210     -2.3270
    -7      -6.132544      10.573938      -0.921210     -2.8730
    -7      -3.092543       6.628939      -1.545210     -1.9160
    -7      -8.254543       6.463938      -1.345210     -3.4185
    -7      -3.590543      10.410938      -4.860209     -2.2155
    -7      -7.603543       5.646938      -7.395210     -2.4555
    -7      -8.952543       6.670938      -9.984209     -2.5355
    -7      -5.061543       8.640939     -10.751209     -1.6960
    -7      -8.537543      13.002938     -11.116209     -1.7610
    -7      -7.722543       8.708939     -12.982210     -1.4195
    -7     -12.372543      10.130939      -6.301209     -2.1530
    -7     -11.372543      12.637938      -8.697210     -2.2750
    -7     -14.869543      11.018938     -11.544209     -2.0390
    -7     -11.305543       6.973938     -12.117210     -2.0905
    -7     -17.662544       7.954938      -9.829210     -1.2415
    -7     -15.608543       5.828938      -8.927210     -1.3920
    -7     -12.828544       6.062939     -10.305210     -1.9600
    -7      -9.341543       7.489938      -6.130210     -3.7115
    -7      -9.828544       7.084938      -4.307209     -2.9435
    -7      -5.236543      11.681938     -10.935209     -1.3765
    -7      -5.925543      11.688938      -6.239210     -2.9375
    -7      -9.367543      11.903938      -6.550210     -2.8240
    -7      -7.976543      13.140938      -9.621210     -1.6675
    -7     -12.173543      10.570938      -3.583210     -3.2695
    -7     -14.683543       8.869938      -2.625210     -1.9740
    -7     -14.441544       5.471938       1.466790     -1.4520
    -7     -14.571543      12.437939      -2.013210     -1.8760
    -7     -17.082542      11.095939      -1.216210     -1.5945
    -7     -17.644543       9.434938       5.057791     -1.3915
    -7     -14.630543      11.056938       6.159790     -1.2010
    -7     -16.330544       7.441938      -0.133210     -2.1580
    -7     -17.001543       7.307939       3.690790     -1.5475
    -7     -17.749542      12.919938       0.527790     -1.4030
    -7     -11.763543      11.258938       2.882790     -3.3365
    -8      -6.630543       5.475938      -4.013210      4.2190
    -8      -5.260543       7.895938      -4.867209      5.4240
    -8      -6.244544       8.578938      -4.145210      4.9400
    -8      -7.673543       9.215939      -8.912210      4.8650
    -8      -9.018543      10.881938      -2.511210      7.2145
    -8     -11.229544       9.661939     -10.165210      5.7745
    -8     -15.318543      10.558938       2.262790      6.4525
    -8     -10.492543      12.335938      -0.759210      6.2730
    -8      -9.863544      10.008938      -1.252210      5.7390
    -8     -11.590544       8.686938      -0.308210      5.4585

$$$$
